1

   Abaqus 2024                                  Date 14-Apr-2026   Time 21:53:55
   For use by STANFORD under license from Dassault Systemes or its subsidiary.

                                                                                 
                                                                                 
 STEP    1     INCREMENT     1     STEP TIME    0.00    


                        S T E P       1     D Y N A M I C   A N A L Y S I S - I M P L I C I T  I N T E G R A T I O N


                                                                                          

          DYNAMIC APPLICATION PACKED SCHEME IS                 QUASI-STATIC        
          BACKWARD EULER (BWE) TIME INTEGRATOR IS USED

     AUTOMATIC TIME CONTROL WITH -
          A SUGGESTED INITIAL TIME INCREMENT OF                0.100    
          AND A TOTAL TIME PERIOD OF                            1.00    
          THE MINIMUM TIME INCREMENT ALLOWED IS                1.000E-09
          THE MAXIMUM TIME INCREMENT ALLOWED IS                 1.00    

          THE HALF-INCREMENT RESIDUALS WILL NOT BE CALCULATED

          INITIAL ACCELERATIONS WILL NOT BE CALCULATED
          AGGRESSIVE   TIME INCREMENTATION IS USED
          STEP AMPLITUDE IS                                    RAMP

 CONVERGENCE TOLERANCE PARAMETERS FOR FORCE    
     CRITERION FOR RESIDUAL FORCE     FOR A NONLINEAR PROBLEM          5.000E-03
     CRITERION FOR DISP.    CORRECTION IN A NONLINEAR PROBLEM          1.000E-02
     INITIAL VALUE OF TIME AVERAGE FORCE                               1.000E-02
     AVERAGE FORCE     IS TIME AVERAGE FORCE    
     ALTERNATE CRIT. FOR RESIDUAL FORCE     FOR A NONLINEAR PROBLEM    2.000E-02
     CRITERION FOR ZERO FORCE     RELATIVE TO TIME AVRG. FORCE         1.000E-05
     CRITERION FOR RESIDUAL FORCE     WHEN THERE IS ZERO FLUX          1.000E-05
     CRITERION FOR DISP.    CORRECTION WHEN THERE IS ZERO FLUX         1.000E-03
     CRITERION FOR RESIDUAL FORCE     FOR A LINEAR INCREMENT           1.000E-08
     FIELD CONVERSION RATIO                                             1.00    
     CRITERION FOR ZERO FORCE     REL. TO TIME AVRG. MAX. FORCE        1.000E-05
     CRITERION FOR ZERO DISP.    RELATIVE TO CHARACTERISTIC LENGTH     1.000E-08

 CONVERGENCE TOLERANCE PARAMETERS FOR MOMENT   
     CRITERION FOR RESIDUAL MOMENT    FOR A NONLINEAR PROBLEM          5.000E-03
     CRITERION FOR ROTATION CORRECTION IN A NONLINEAR PROBLEM          1.000E-02
     INITIAL VALUE OF TIME AVERAGE MOMENT                              1.000E-02
     AVERAGE MOMENT    IS TIME AVERAGE MOMENT   
     ALTERNATE CRIT. FOR RESIDUAL MOMENT    FOR A NONLINEAR PROBLEM    2.000E-02
     CRITERION FOR ZERO MOMENT    RELATIVE TO TIME AVRG. MOMENT        1.000E-05
     CRITERION FOR RESIDUAL MOMENT    WHEN THERE IS ZERO FLUX          1.000E-05
     CRITERION FOR ROTATION CORRECTION WHEN THERE IS ZERO FLUX         1.000E-03
     CRITERION FOR RESIDUAL MOMENT    FOR A LINEAR INCREMENT           1.000E-08
     FIELD CONVERSION RATIO                                             1.00    
     CRITERION FOR ZERO MOMENT    REL. TO TIME AVRG. MAX. MOMENT       1.000E-05

     VOLUMETRIC STRAIN COMPATIBILITY TOLERANCE FOR HYBRID SOLIDS       1.000E-05
     AXIAL STRAIN COMPATIBILITY TOLERANCE FOR HYBRID BEAMS             1.000E-05
     TRANS. SHEAR STRAIN COMPATIBILITY TOLERANCE FOR HYBRID BEAMS      1.000E-05
     SOFT CONTACT CONSTRAINT COMPATIBILITY TOLERANCE FOR P>P0          5.000E-03
     SOFT CONTACT CONSTRAINT COMPATIBILITY TOLERANCE FOR P=0.0         0.100    
     CONTACT FORCE ERROR TOLERANCE FOR CONVERT SDI=YES                 1.00    
     DISPLACEMENT COMPATIBILITY TOLERANCE FOR DCOUP ELEMENTS           1.000E-05
     ROTATION COMPATIBILITY TOLERANCE FOR DCOUP ELEMENTS               1.000E-05

 EQUILIBRIUM WILL BE CHECKED FOR SEVERE DISCONTINUITY ITERATIONS

 TIME INCREMENTATION CONTROL PARAMETERS:
     FIRST EQUILIBRIUM ITERATION FOR CONSECUTIVE DIVERGENCE CHECK              4
     EQUILIBRIUM ITERATION AT WHICH LOG. CONVERGENCE RATE CHECK BEGINS         8
     EQUILIBRIUM ITERATION AFTER WHICH ALTERNATE RESIDUAL IS USED              9
     MAXIMUM EQUILIBRIUM ITERATIONS ALLOWED                                   16
     EQUILIBRIUM ITERATION COUNT FOR CUT-BACK IN NEXT INCREMENT               10
     MAXIMUM EQUILIB. ITERS IN TWO INCREMENTS FOR TIME INCREMENT INCREASE      4
     MAXIMUM ITERATIONS FOR SEVERE DISCONTINUITIES                            50
     MAXIMUM ATTEMPTS ALLOWED IN AN INCREMENT                                  5
     MAXIMUM DISCON. ITERS IN TWO INCREMENTS FOR TIME INCREMENT INCREASE      50
     MAXIMUM CONTACT AUGMENTATIONS FOR *SURFACE BEHAVIOR,AUGMENTED LAGRANGE   50
     CUT-BACK FACTOR AFTER DIVERGENCE                                 0.2500    
     CUT-BACK FACTOR FOR TOO SLOW CONVERGENCE                         0.5000    
     CUT-BACK FACTOR AFTER TOO MANY EQUILIBRIUM ITERATIONS            0.7500    
     CUT-BACK FACTOR AFTER TOO MANY SEVERE DISCONTINUITY ITERATIONS   0.2500    
     CUT-BACK FACTOR AFTER PROBLEMS IN ELEMENT ASSEMBLY               0.2500    
     INCREASE FACTOR AFTER TWO INCREMENTS THAT CONVERGE QUICKLY        1.500    
     MAX. TIME INCREMENT INCREASE FACTOR ALLOWED                       1.500    
     MAX. TIME INCREMENT INCREASE FACTOR ALLOWED (DYNAMICS)            1.250    
     MAX. TIME INCREMENT INCREASE FACTOR ALLOWED (DIFFUSION)           2.000    
     MINIMUM TIME INCREMENT RATIO FOR EXTRAPOLATION TO OCCUR          0.1000    
     MAX. RATIO OF TIME INCREMENT TO STABILITY LIMIT                   1.000    
     FRACTION OF STABILITY LIMIT FOR NEW TIME INCREMENT               0.9500    
     TIME INCREMENT INCREASE FACTOR BEFORE A TIME POINT                1.000    
     GLOBAL STABILIZATION CONTROL IS NOT USED

          PRINT OF INCREMENT NUMBER, TIME, ETC., EVERY    1  INCREMENTS

     THE MAXIMUM NUMBER OF INCREMENTS IN THIS STEP IS                   10000

          LARGE DISPLACEMENT THEORY WILL BE USED

     LINEAR EXTRAPOLATION WILL BE USED

     CHARACTERISTIC ELEMENT LENGTH      2.56    

     DETAILS REGARDING ACTUAL SOLUTION WAVEFRONT REQUESTED

     DETAILED OUTPUT OF DIAGNOSTICS TO DATABASE REQUESTED

     PRINT OF INCREMENT NUMBER, TIME, ETC., TO THE MESSAGE FILE EVERY     1  INCREMENTS

     COLLECTING MODEL CONSTRAINT INFORMATION FOR OVERCONSTRAINT CHECKS

     COLLECTING STEP CONSTRAINT INFORMATION FOR OVERCONSTRAINT CHECKS
 
     CONTACT INITIAL STRESS CALCULATIONS ARE TURNED ON IN ZEROINC


  INCREMENT     1 STARTS. ATTEMPT NUMBER  1, TIME INCREMENT  0.100    
 
	SYMMETRIC DIRECT SPARSE SOLVER RUNNING ON
 	1 HOST x 1 MPI RANK PER HOST x 1 THREAD PER RANK
        NUMBER OF EQUATIONS:  7248
        NUMBER OF RHS:        1
        NUMBER OF FLOPS:      8.357e+07
        SOLVER ELAPSED TIME:  20ms

               CONVERGENCE CHECKS FOR EQUILIBRIUM ITERATION     1


 AVERAGE FORCE                      2.538E-02   TIME AVG. FORCE       2.538E-02
 LARGEST SCALED RESIDUAL FORCE      0.356       AT NODE        138   DOF  1
   INSTANCE: FRAME-1                                                                         
  CORRESPONDING RESIDUAL FORCE      0.356    
 LARGEST INCREMENT OF DISP.         5.933E-02   AT NODE        255   DOF  3
   INSTANCE: FRAME-1                                                                         
 LARGEST CORRECTION TO DISP.        5.933E-02   AT NODE        255   DOF  3
   INSTANCE: FRAME-1                                                                         
          FORCE     EQUILIBRIUM NOT ACHIEVED WITHIN TOLERANCE.

 AVERAGE MOMENT                     1.701E-03   TIME AVG. MOMENT      1.701E-03
 LARGEST SCALED RESIDUAL MOMENT     2.303E-02   AT NODE        138   DOF  5
   INSTANCE: FRAME-1                                                                         
  CORRESPONDING RESIDUAL MOMENT     2.303E-02
 LARGEST INCREMENT OF ROTATION     -5.903E-03   AT NODE        138   DOF  5
   INSTANCE: FRAME-1                                                                         
 LARGEST CORRECTION TO ROTATION    -5.903E-03   AT NODE        138   DOF  5
   INSTANCE: FRAME-1                                                                         
          MOMENT    EQUILIBRIUM NOT ACHIEVED WITHIN TOLERANCE.
 
	SYMMETRIC DIRECT SPARSE SOLVER RUNNING ON
 	1 HOST x 1 MPI RANK PER HOST x 1 THREAD PER RANK
        NUMBER OF EQUATIONS:  7248
        NUMBER OF RHS:        1
        NUMBER OF FLOPS:      8.357e+07
        SOLVER ELAPSED TIME:  15ms
 

 ***WARNING: THE SYSTEM MATRIX HAS 1 NEGATIVE EIGENVALUES.

     NEGATIVE EIGENVALUES MEAN THAT THE SYSTEM MATRIX IS NOT 
     POSITIVE DEFINITE:
     FOR EXAMPLE, A BIFURCATION (BUCKLING) LOAD MAY HAVE BEEN EXCEEDED.

               CONVERGENCE CHECKS FOR EQUILIBRIUM ITERATION     2


 AVERAGE FORCE                      2.166E-02   TIME AVG. FORCE       2.166E-02
 LARGEST SCALED RESIDUAL FORCE     -1.246E-02   AT NODE        304   DOF  1
   INSTANCE: FRAME-1                                                                         
  CORRESPONDING RESIDUAL FORCE     -1.246E-02
 LARGEST INCREMENT OF DISP.        -8.034E-02   AT NODE         16   DOF  3
   INSTANCE: FRAME-1                                                                         
 LARGEST CORRECTION TO DISP.       -6.656E-02   AT NODE         16   DOF  3
   INSTANCE: FRAME-1                                                                         
          FORCE     EQUILIBRIUM NOT ACHIEVED WITHIN TOLERANCE.

 AVERAGE MOMENT                     1.263E-03   TIME AVG. MOMENT      1.263E-03
 LARGEST SCALED RESIDUAL MOMENT    -1.037E-03   AT NODE        304   DOF  5
   INSTANCE: FRAME-1                                                                         
  CORRESPONDING RESIDUAL MOMENT    -1.037E-03
 LARGEST INCREMENT OF ROTATION     -6.417E-03   AT NODE        138   DOF  5
   INSTANCE: FRAME-1                                                                         
 LARGEST CORRECTION TO ROTATION    -1.108E-03   AT NODE        145   DOF  4
   INSTANCE: FRAME-1                                                                         
          MOMENT    EQUILIBRIUM NOT ACHIEVED WITHIN TOLERANCE.
 
	SYMMETRIC DIRECT SPARSE SOLVER RUNNING ON
 	1 HOST x 1 MPI RANK PER HOST x 1 THREAD PER RANK
        NUMBER OF EQUATIONS:  7248
        NUMBER OF RHS:        1
        NUMBER OF FLOPS:      8.357e+07
        SOLVER ELAPSED TIME:  15ms
 

 ***WARNING: THE SYSTEM MATRIX HAS 1 NEGATIVE EIGENVALUES.
             EXPLANATIONS ARE SUGGESTED AFTER THE FIRST OCCURRENCE OF THIS MESSAGE.

               CONVERGENCE CHECKS FOR EQUILIBRIUM ITERATION     3


 AVERAGE FORCE                      2.243E-02   TIME AVG. FORCE       2.243E-02
 LARGEST SCALED RESIDUAL FORCE     -0.144       AT NODE        195   DOF  1
   INSTANCE: FRAME-1                                                                         
  CORRESPONDING RESIDUAL FORCE     -0.144    
 LARGEST INCREMENT OF DISP.         8.022E-02   AT NODE        252   DOF  3
   INSTANCE: FRAME-1                                                                         
 LARGEST CORRECTION TO DISP.        9.856E-02   AT NODE          4   DOF  3
   INSTANCE: FRAME-1                                                                         
          FORCE     EQUILIBRIUM NOT ACHIEVED WITHIN TOLERANCE.

 AVERAGE MOMENT                     1.478E-03   TIME AVG. MOMENT      1.478E-03
 LARGEST SCALED RESIDUAL MOMENT    -9.374E-03   AT NODE        195   DOF  5
   INSTANCE: FRAME-1                                                                         
  CORRESPONDING RESIDUAL MOMENT    -9.374E-03
 LARGEST INCREMENT OF ROTATION      9.888E-03   AT NODE        195   DOF  5
   INSTANCE: FRAME-1                                                                         
 LARGEST CORRECTION TO ROTATION     3.488E-03   AT NODE        195   DOF  5
   INSTANCE: FRAME-1                                                                         
          MOMENT    EQUILIBRIUM NOT ACHIEVED WITHIN TOLERANCE.
 
	SYMMETRIC DIRECT SPARSE SOLVER RUNNING ON
 	1 HOST x 1 MPI RANK PER HOST x 1 THREAD PER RANK
        NUMBER OF EQUATIONS:  7248
        NUMBER OF RHS:        1
        NUMBER OF FLOPS:      8.357e+07
        SOLVER ELAPSED TIME:  14ms
 

 ***WARNING: THE SYSTEM MATRIX HAS 1 NEGATIVE EIGENVALUES.
             EXPLANATIONS ARE SUGGESTED AFTER THE FIRST OCCURRENCE OF THIS MESSAGE.

               CONVERGENCE CHECKS FOR EQUILIBRIUM ITERATION     4


 AVERAGE FORCE                      2.037E-02   TIME AVG. FORCE       2.037E-02
 LARGEST SCALED RESIDUAL FORCE     -0.107       AT NODE        161   DOF  2
   INSTANCE: FRAME-1                                                                         
  CORRESPONDING RESIDUAL FORCE     -0.107    
 LARGEST INCREMENT OF DISP.        -0.143       AT NODE         16   DOF  3
   INSTANCE: FRAME-1                                                                         
 LARGEST CORRECTION TO DISP.       -0.161       AT NODE         16   DOF  3
   INSTANCE: FRAME-1                                                                         
          FORCE     EQUILIBRIUM NOT ACHIEVED WITHIN TOLERANCE.

 AVERAGE MOMENT                     1.330E-03   TIME AVG. MOMENT      1.330E-03
 LARGEST SCALED RESIDUAL MOMENT     8.877E-03   AT NODE        161   DOF  4
   INSTANCE: FRAME-1                                                                         
  CORRESPONDING RESIDUAL MOMENT     8.877E-03
 LARGEST INCREMENT OF ROTATION      1.022E-02   AT NODE        194   DOF  5
   INSTANCE: FRAME-1                                                                         
 LARGEST CORRECTION TO ROTATION     2.294E-03   AT NODE        201   DOF  4
   INSTANCE: FRAME-1                                                                         
          MOMENT    EQUILIBRIUM NOT ACHIEVED WITHIN TOLERANCE.
 
	SYMMETRIC DIRECT SPARSE SOLVER RUNNING ON
 	1 HOST x 1 MPI RANK PER HOST x 1 THREAD PER RANK
        NUMBER OF EQUATIONS:  7248
        NUMBER OF RHS:        1
        NUMBER OF FLOPS:      8.357e+07
        SOLVER ELAPSED TIME:  14ms

               CONVERGENCE CHECKS FOR EQUILIBRIUM ITERATION     5


 AVERAGE FORCE                      2.060E-02   TIME AVG. FORCE       2.060E-02
 LARGEST SCALED RESIDUAL FORCE      7.971E-02   AT NODE        300   DOF  2
   INSTANCE: FRAME-1                                                                         
  CORRESPONDING RESIDUAL FORCE      7.971E-02
 LARGEST INCREMENT OF DISP.        -0.278       AT NODE         16   DOF  3
   INSTANCE: FRAME-1                                                                         
 LARGEST CORRECTION TO DISP.       -0.135       AT NODE          4   DOF  3
   INSTANCE: FRAME-1                                                                         
          FORCE     EQUILIBRIUM NOT ACHIEVED WITHIN TOLERANCE.

 AVERAGE MOMENT                     1.299E-03   TIME AVG. MOMENT      1.299E-03
 LARGEST SCALED RESIDUAL MOMENT     6.360E-03   AT NODE         29   DOF  5
   INSTANCE: FRAME-1                                                                         
  CORRESPONDING RESIDUAL MOMENT     6.360E-03
 LARGEST INCREMENT OF ROTATION      1.025E-02   AT NODE        192   DOF  5
   INSTANCE: FRAME-1                                                                         
 LARGEST CORRECTION TO ROTATION    -1.985E-03   AT NODE         83   DOF  5
   INSTANCE: FRAME-1                                                                         
          MOMENT    EQUILIBRIUM NOT ACHIEVED WITHIN TOLERANCE.
 
	SYMMETRIC DIRECT SPARSE SOLVER RUNNING ON
 	1 HOST x 1 MPI RANK PER HOST x 1 THREAD PER RANK
        NUMBER OF EQUATIONS:  7248
        NUMBER OF RHS:        1
        NUMBER OF FLOPS:      8.357e+07
        SOLVER ELAPSED TIME:  14ms

               CONVERGENCE CHECKS FOR EQUILIBRIUM ITERATION     6


 AVERAGE FORCE                      6.713E-02   TIME AVG. FORCE       6.713E-02
 LARGEST SCALED RESIDUAL FORCE      -1.49       AT NODE        161   DOF  2
   INSTANCE: FRAME-1                                                                         
  CORRESPONDING RESIDUAL FORCE      -1.49    
 LARGEST INCREMENT OF DISP.        -0.889       AT NODE         16   DOF  3
   INSTANCE: FRAME-1                                                                         
 LARGEST CORRECTION TO DISP.       -0.612       AT NODE         16   DOF  3
   INSTANCE: FRAME-1                                                                         
          FORCE     EQUILIBRIUM NOT ACHIEVED WITHIN TOLERANCE.

 AVERAGE MOMENT                     6.391E-03   TIME AVG. MOMENT      6.391E-03
 LARGEST SCALED RESIDUAL MOMENT     0.124       AT NODE        161   DOF  4
   INSTANCE: FRAME-1                                                                         
  CORRESPONDING RESIDUAL MOMENT     0.124    
 LARGEST INCREMENT OF ROTATION      1.310E-02   AT NODE        200   DOF  4
   INSTANCE: FRAME-1                                                                         
 LARGEST CORRECTION TO ROTATION     8.668E-03   AT NODE        199   DOF  4
   INSTANCE: FRAME-1                                                                         
          MOMENT    EQUILIBRIUM NOT ACHIEVED WITHIN TOLERANCE.
 

 ***NOTE: THE SOLUTION APPEARS TO BE DIVERGING. CONVERGENCE IS JUDGED UNLIKELY.


  INCREMENT     1 STARTS. ATTEMPT NUMBER  2, TIME INCREMENT  2.500E-02
 
	SYMMETRIC DIRECT SPARSE SOLVER RUNNING ON
 	1 HOST x 1 MPI RANK PER HOST x 1 THREAD PER RANK
        NUMBER OF EQUATIONS:  7248
        NUMBER OF RHS:        1
        NUMBER OF FLOPS:      8.357e+07
        SOLVER ELAPSED TIME:  15ms

               CONVERGENCE CHECKS FOR EQUILIBRIUM ITERATION     1


 AVERAGE FORCE                      7.147E-03   TIME AVG. FORCE       7.147E-03
 LARGEST SCALED RESIDUAL FORCE     -9.007E-02   AT NODE        194   DOF  1
   INSTANCE: FRAME-1                                                                         
  CORRESPONDING RESIDUAL FORCE     -9.007E-02
 LARGEST INCREMENT OF DISP.         3.177E-02   AT NODE         47   DOF  3
   INSTANCE: FRAME-1                                                                         
 LARGEST CORRECTION TO DISP.        3.177E-02   AT NODE         47   DOF  3
   INSTANCE: FRAME-1                                                                         
          FORCE     EQUILIBRIUM NOT ACHIEVED WITHIN TOLERANCE.

 AVERAGE MOMENT                     4.721E-04   TIME AVG. MOMENT      4.721E-04
 LARGEST SCALED RESIDUAL MOMENT    -5.839E-03   AT NODE        194   DOF  5
   INSTANCE: FRAME-1                                                                         
  CORRESPONDING RESIDUAL MOMENT    -5.839E-03
 LARGEST INCREMENT OF ROTATION      2.848E-03   AT NODE        194   DOF  5
   INSTANCE: FRAME-1                                                                         
 LARGEST CORRECTION TO ROTATION     2.848E-03   AT NODE        194   DOF  5
   INSTANCE: FRAME-1                                                                         
          MOMENT    EQUILIBRIUM NOT ACHIEVED WITHIN TOLERANCE.
 
	SYMMETRIC DIRECT SPARSE SOLVER RUNNING ON
 	1 HOST x 1 MPI RANK PER HOST x 1 THREAD PER RANK
        NUMBER OF EQUATIONS:  7248
        NUMBER OF RHS:        1
        NUMBER OF FLOPS:      8.357e+07
        SOLVER ELAPSED TIME:  17ms

               CONVERGENCE CHECKS FOR EQUILIBRIUM ITERATION     2


 AVERAGE FORCE                      6.089E-03   TIME AVG. FORCE       6.089E-03
 LARGEST SCALED RESIDUAL FORCE     -3.758E-04   AT NODE        192   DOF  1
   INSTANCE: FRAME-1                                                                         
  CORRESPONDING RESIDUAL FORCE     -3.758E-04
 LARGEST INCREMENT OF DISP.         3.067E-02   AT NODE         48   DOF  3
   INSTANCE: FRAME-1                                                                         
 LARGEST CORRECTION TO DISP.       -5.321E-03   AT NODE         16   DOF  3
   INSTANCE: FRAME-1                                                                         
          FORCE     EQUILIBRIUM NOT ACHIEVED WITHIN TOLERANCE.

 AVERAGE MOMENT                     3.312E-04   TIME AVG. MOMENT      3.312E-04
 LARGEST SCALED RESIDUAL MOMENT    -2.513E-05   AT NODE        304   DOF  5
   INSTANCE: FRAME-1                                                                         
  CORRESPONDING RESIDUAL MOMENT    -2.513E-05
 LARGEST INCREMENT OF ROTATION      3.025E-03   AT NODE        194   DOF  5
   INSTANCE: FRAME-1                                                                         
 LARGEST CORRECTION TO ROTATION     1.779E-04   AT NODE        192   DOF  5
   INSTANCE: FRAME-1                                                                         
          MOMENT    EQUILIBRIUM NOT ACHIEVED WITHIN TOLERANCE.
 
	SYMMETRIC DIRECT SPARSE SOLVER RUNNING ON
 	1 HOST x 1 MPI RANK PER HOST x 1 THREAD PER RANK
        NUMBER OF EQUATIONS:  7248
        NUMBER OF RHS:        1
        NUMBER OF FLOPS:      8.357e+07
        SOLVER ELAPSED TIME:  14ms
 

 ***WARNING: THE SYSTEM MATRIX HAS 1 NEGATIVE EIGENVALUES.
             EXPLANATIONS ARE SUGGESTED AFTER THE FIRST OCCURRENCE OF THIS MESSAGE.

               CONVERGENCE CHECKS FOR EQUILIBRIUM ITERATION     3


 AVERAGE FORCE                      5.830E-03   TIME AVG. FORCE       5.830E-03
 LARGEST SCALED RESIDUAL FORCE     -7.835E-03   AT NODE        164   DOF  2
   INSTANCE: FRAME-1                                                                         
  CORRESPONDING RESIDUAL FORCE     -7.835E-03
 LARGEST INCREMENT OF DISP.         5.464E-02   AT NODE         43   DOF  3
   INSTANCE: FRAME-1                                                                         
 LARGEST CORRECTION TO DISP.        4.350E-02   AT NODE          4   DOF  3
   INSTANCE: FRAME-1                                                                         
          FORCE     EQUILIBRIUM NOT ACHIEVED WITHIN TOLERANCE.

 AVERAGE MOMENT                     3.380E-04   TIME AVG. MOMENT      3.380E-04
 LARGEST SCALED RESIDUAL MOMENT     6.537E-04   AT NODE        164   DOF  4
   INSTANCE: FRAME-1                                                                         
  CORRESPONDING RESIDUAL MOMENT     6.537E-04
 LARGEST INCREMENT OF ROTATION      3.477E-03   AT NODE        195   DOF  5
   INSTANCE: FRAME-1                                                                         
 LARGEST CORRECTION TO ROTATION    -5.830E-04   AT NODE        188   DOF  4
   INSTANCE: FRAME-1                                                                         
          MOMENT    EQUILIBRIUM NOT ACHIEVED WITHIN TOLERANCE.
 
	SYMMETRIC DIRECT SPARSE SOLVER RUNNING ON
 	1 HOST x 1 MPI RANK PER HOST x 1 THREAD PER RANK
        NUMBER OF EQUATIONS:  7248
        NUMBER OF RHS:        1
        NUMBER OF FLOPS:      8.357e+07
        SOLVER ELAPSED TIME:  14ms

               CONVERGENCE CHECKS FOR EQUILIBRIUM ITERATION     4


 AVERAGE FORCE                      6.013E-03   TIME AVG. FORCE       6.013E-03
 LARGEST SCALED RESIDUAL FORCE     -6.698E-06   AT NODE        301   DOF  1
   INSTANCE: FRAME-1                                                                         
  CORRESPONDING RESIDUAL FORCE     -6.698E-06
 LARGEST INCREMENT OF DISP.         5.538E-02   AT NODE         43   DOF  3
   INSTANCE: FRAME-1                                                                         
 LARGEST CORRECTION TO DISP.        1.402E-03   AT NODE         16   DOF  3
   INSTANCE: FRAME-1                                                                         
 ESTIMATE OF DISP.    CORRECTION    2.498E-05
 FORCE     EQUILIB. ACCEPTED BASED ON SMALL RESIDUAL AND ESTIMATED CORRECTION

 AVERAGE MOMENT                     3.399E-04   TIME AVG. MOMENT      3.399E-04
 LARGEST SCALED RESIDUAL MOMENT    -5.621E-07   AT NODE        301   DOF  5
   INSTANCE: FRAME-1                                                                         
  CORRESPONDING RESIDUAL MOMENT    -5.621E-07
 LARGEST INCREMENT OF ROTATION      3.481E-03   AT NODE        195   DOF  5
   INSTANCE: FRAME-1                                                                         
 LARGEST CORRECTION TO ROTATION    -1.776E-05   AT NODE        285   DOF  5
   INSTANCE: FRAME-1                                                                         
          THE MOMENT    EQUILIBRIUM EQUATIONS HAVE CONVERGED

 ITERATION SUMMARY FOR THE INCREMENT:   4 TOTAL ITERATIONS, OF WHICH
   0 ARE SEVERE DISCONTINUITY ITERATIONS AND  4 ARE EQUILIBRIUM ITERATIONS.

 TIME INCREMENT COMPLETED  2.500E-02,  FRACTION OF STEP COMPLETED  2.500E-02
 STEP TIME COMPLETED       2.500E-02,  TOTAL TIME COMPLETED        2.500E-02


  INCREMENT     2 STARTS. ATTEMPT NUMBER  1, TIME INCREMENT  2.500E-02
 
	SYMMETRIC DIRECT SPARSE SOLVER RUNNING ON
 	1 HOST x 1 MPI RANK PER HOST x 1 THREAD PER RANK
        NUMBER OF EQUATIONS:  7248
        NUMBER OF RHS:        1
        NUMBER OF FLOPS:      8.357e+07
        SOLVER ELAPSED TIME:  14ms

               CONVERGENCE CHECKS FOR EQUILIBRIUM ITERATION     1


 AVERAGE FORCE                      1.051E-02   TIME AVG. FORCE       8.263E-03
 LARGEST SCALED RESIDUAL FORCE      4.127E-02   AT NODE        297   DOF  2
   INSTANCE: FRAME-1                                                                         
  CORRESPONDING RESIDUAL FORCE      4.127E-02
 LARGEST INCREMENT OF DISP.         0.115       AT NODE          4   DOF  3
   INSTANCE: FRAME-1                                                                         
 LARGEST CORRECTION TO DISP.        8.439E-02   AT NODE         16   DOF  3
   INSTANCE: FRAME-1                                                                         
          FORCE     EQUILIBRIUM NOT ACHIEVED WITHIN TOLERANCE.

 AVERAGE MOMENT                     1.354E-03   TIME AVG. MOMENT      8.470E-04
 LARGEST SCALED RESIDUAL MOMENT     3.415E-03   AT NODE         32   DOF  5
   INSTANCE: FRAME-1                                                                         
  CORRESPONDING RESIDUAL MOMENT     3.415E-03
 LARGEST INCREMENT OF ROTATION     -2.747E-03   AT NODE         73   DOF  4
   INSTANCE: FRAME-1                                                                         
 LARGEST CORRECTION TO ROTATION     1.225E-03   AT NODE         40   DOF  4
   INSTANCE: FRAME-1                                                                         
          MOMENT    EQUILIBRIUM NOT ACHIEVED WITHIN TOLERANCE.
 
	SYMMETRIC DIRECT SPARSE SOLVER RUNNING ON
 	1 HOST x 1 MPI RANK PER HOST x 1 THREAD PER RANK
        NUMBER OF EQUATIONS:  7248
        NUMBER OF RHS:        1
        NUMBER OF FLOPS:      8.357e+07
        SOLVER ELAPSED TIME:  14ms

               CONVERGENCE CHECKS FOR EQUILIBRIUM ITERATION     2


 AVERAGE FORCE                      1.285E-02   TIME AVG. FORCE       9.431E-03
 LARGEST SCALED RESIDUAL FORCE     -0.255       AT NODE        160   DOF  1
   INSTANCE: FRAME-1                                                                         
  CORRESPONDING RESIDUAL FORCE     -0.255    
 LARGEST INCREMENT OF DISP.         0.359       AT NODE          4   DOF  3
   INSTANCE: FRAME-1                                                                         
 LARGEST CORRECTION TO DISP.        0.244       AT NODE         16   DOF  3
   INSTANCE: FRAME-1                                                                         
          FORCE     EQUILIBRIUM NOT ACHIEVED WITHIN TOLERANCE.

 AVERAGE MOMENT                     2.282E-03   TIME AVG. MOMENT      1.311E-03
 LARGEST SCALED RESIDUAL MOMENT     2.124E-02   AT NODE        161   DOF  4
   INSTANCE: FRAME-1                                                                         
  CORRESPONDING RESIDUAL MOMENT     2.124E-02
 LARGEST INCREMENT OF ROTATION     -4.682E-03   AT NODE        282   DOF  5
   INSTANCE: FRAME-1                                                                         
 LARGEST CORRECTION TO ROTATION    -3.302E-03   AT NODE        278   DOF  5
   INSTANCE: FRAME-1                                                                         
          MOMENT    EQUILIBRIUM NOT ACHIEVED WITHIN TOLERANCE.
 
	SYMMETRIC DIRECT SPARSE SOLVER RUNNING ON
 	1 HOST x 1 MPI RANK PER HOST x 1 THREAD PER RANK
        NUMBER OF EQUATIONS:  7248
        NUMBER OF RHS:        1
        NUMBER OF FLOPS:      8.357e+07
        SOLVER ELAPSED TIME:  14ms

               CONVERGENCE CHECKS FOR EQUILIBRIUM ITERATION     3


 AVERAGE FORCE                      1.084E-02   TIME AVG. FORCE       8.428E-03
 LARGEST SCALED RESIDUAL FORCE     -7.000E-03   AT NODE        301   DOF  1
   INSTANCE: FRAME-1                                                                         
  CORRESPONDING RESIDUAL FORCE     -7.000E-03
 LARGEST INCREMENT OF DISP.         0.389       AT NODE         16   DOF  3
   INSTANCE: FRAME-1                                                                         
 LARGEST CORRECTION TO DISP.        2.992E-02   AT NODE         16   DOF  3
   INSTANCE: FRAME-1                                                                         
          FORCE     EQUILIBRIUM NOT ACHIEVED WITHIN TOLERANCE.

 AVERAGE MOMENT                     1.317E-03   TIME AVG. MOMENT      8.283E-04
 LARGEST SCALED RESIDUAL MOMENT    -5.869E-04   AT NODE        301   DOF  5
   INSTANCE: FRAME-1                                                                         
  CORRESPONDING RESIDUAL MOMENT    -5.869E-04
 LARGEST INCREMENT OF ROTATION     -5.041E-03   AT NODE        283   DOF  5
   INSTANCE: FRAME-1                                                                         
 LARGEST CORRECTION TO ROTATION     4.483E-04   AT NODE          1   DOF  4
   INSTANCE: FRAME-1                                                                         
          MOMENT    EQUILIBRIUM NOT ACHIEVED WITHIN TOLERANCE.
 
	SYMMETRIC DIRECT SPARSE SOLVER RUNNING ON
 	1 HOST x 1 MPI RANK PER HOST x 1 THREAD PER RANK
        NUMBER OF EQUATIONS:  7248
        NUMBER OF RHS:        1
        NUMBER OF FLOPS:      8.357e+07
        SOLVER ELAPSED TIME:  14ms
 

 ***WARNING: THE SYSTEM MATRIX HAS 1 NEGATIVE EIGENVALUES.
             EXPLANATIONS ARE SUGGESTED AFTER THE FIRST OCCURRENCE OF THIS MESSAGE.

               CONVERGENCE CHECKS FOR EQUILIBRIUM ITERATION     4


 AVERAGE FORCE                      0.837       TIME AVG. FORCE       0.422    
 LARGEST SCALED RESIDUAL FORCE      -18.9       AT NODE        160   DOF  1
   INSTANCE: FRAME-1                                                                         
  CORRESPONDING RESIDUAL FORCE      -18.9    
 LARGEST INCREMENT OF DISP.         -1.78       AT NODE         16   DOF  3
   INSTANCE: FRAME-1                                                                         
 LARGEST CORRECTION TO DISP.        -2.17       AT NODE         16   DOF  3
   INSTANCE: FRAME-1                                                                         
          FORCE     EQUILIBRIUM NOT ACHIEVED WITHIN TOLERANCE.

 AVERAGE MOMENT                     0.175       TIME AVG. MOMENT      8.764E-02
 LARGEST SCALED RESIDUAL MOMENT      1.55       AT NODE        161   DOF  4
   INSTANCE: FRAME-1                                                                         
  CORRESPONDING RESIDUAL MOMENT      1.55    
 LARGEST INCREMENT OF ROTATION      2.318E-02   AT NODE        199   DOF  4
   INSTANCE: FRAME-1                                                                         
 LARGEST CORRECTION TO ROTATION     2.808E-02   AT NODE        198   DOF  4
   INSTANCE: FRAME-1                                                                         
          MOMENT    EQUILIBRIUM NOT ACHIEVED WITHIN TOLERANCE.
 

 ***NOTE: THE SOLUTION APPEARS TO BE DIVERGING. CONVERGENCE IS JUDGED UNLIKELY.


  INCREMENT     2 STARTS. ATTEMPT NUMBER  2, TIME INCREMENT  6.250E-03
 
	SYMMETRIC DIRECT SPARSE SOLVER RUNNING ON
 	1 HOST x 1 MPI RANK PER HOST x 1 THREAD PER RANK
        NUMBER OF EQUATIONS:  7248
        NUMBER OF RHS:        1
        NUMBER OF FLOPS:      8.357e+07
        SOLVER ELAPSED TIME:  15ms

               CONVERGENCE CHECKS FOR EQUILIBRIUM ITERATION     1


 AVERAGE FORCE                      7.107E-03   TIME AVG. FORCE       6.560E-03
 LARGEST SCALED RESIDUAL FORCE      8.614E-04   AT NODE        297   DOF  2
   INSTANCE: FRAME-1                                                                         
  CORRESPONDING RESIDUAL FORCE      8.614E-04
 LARGEST INCREMENT OF DISP.         1.763E-02   AT NODE          4   DOF  3
   INSTANCE: FRAME-1                                                                         
 LARGEST CORRECTION TO DISP.        9.969E-03   AT NODE          4   DOF  3
   INSTANCE: FRAME-1                                                                         
          FORCE     EQUILIBRIUM NOT ACHIEVED WITHIN TOLERANCE.

 AVERAGE MOMENT                     8.481E-04   TIME AVG. MOMENT      5.940E-04
 LARGEST SCALED RESIDUAL MOMENT     7.125E-05   AT NODE         32   DOF  5
   INSTANCE: FRAME-1                                                                         
  CORRESPONDING RESIDUAL MOMENT     7.125E-05
 LARGEST INCREMENT OF ROTATION      6.910E-04   AT NODE        197   DOF  5
   INSTANCE: FRAME-1                                                                         
 LARGEST CORRECTION TO ROTATION     2.286E-04   AT NODE         43   DOF  4
   INSTANCE: FRAME-1                                                                         
          MOMENT    EQUILIBRIUM NOT ACHIEVED WITHIN TOLERANCE.
 
	SYMMETRIC DIRECT SPARSE SOLVER RUNNING ON
 	1 HOST x 1 MPI RANK PER HOST x 1 THREAD PER RANK
        NUMBER OF EQUATIONS:  7248
        NUMBER OF RHS:        1
        NUMBER OF FLOPS:      8.357e+07
        SOLVER ELAPSED TIME:  14ms

               CONVERGENCE CHECKS FOR EQUILIBRIUM ITERATION     2


 AVERAGE FORCE                      7.117E-03   TIME AVG. FORCE       6.565E-03
 LARGEST SCALED RESIDUAL FORCE     -1.298E-05   AT NODE         25   DOF  2
   INSTANCE: FRAME-1                                                                         
  CORRESPONDING RESIDUAL FORCE     -1.298E-05
 LARGEST INCREMENT OF DISP.         1.916E-02   AT NODE          4   DOF  3
   INSTANCE: FRAME-1                                                                         
 LARGEST CORRECTION TO DISP.        1.530E-03   AT NODE         16   DOF  3
   INSTANCE: FRAME-1                                                                         
 ESTIMATE OF DISP.    CORRECTION   -2.305E-05
 FORCE     EQUILIB. ACCEPTED BASED ON SMALL RESIDUAL AND ESTIMATED CORRECTION

 AVERAGE MOMENT                     8.487E-04   TIME AVG. MOMENT      5.943E-04
 LARGEST SCALED RESIDUAL MOMENT    -1.072E-06   AT NODE        304   DOF  5
   INSTANCE: FRAME-1                                                                         
  CORRESPONDING RESIDUAL MOMENT    -1.072E-06
 LARGEST INCREMENT OF ROTATION     -6.844E-04   AT NODE         75   DOF  4
   INSTANCE: FRAME-1                                                                         
 LARGEST CORRECTION TO ROTATION     1.993E-05   AT NODE        134   DOF  4
   INSTANCE: FRAME-1                                                                         
 ESTIMATE OF ROTATION CORRECTION   -2.998E-07
 MOMENT    EQUILIB. ACCEPTED BASED ON SMALL RESIDUAL AND ESTIMATED CORRECTION
          TIME INCREMENT MAY NOW INCREASE TO    9.375E-03

 ITERATION SUMMARY FOR THE INCREMENT:   2 TOTAL ITERATIONS, OF WHICH
   0 ARE SEVERE DISCONTINUITY ITERATIONS AND  2 ARE EQUILIBRIUM ITERATIONS.

 TIME INCREMENT COMPLETED  6.250E-03,  FRACTION OF STEP COMPLETED  3.125E-02
 STEP TIME COMPLETED       3.125E-02,  TOTAL TIME COMPLETED        3.125E-02


  INCREMENT     3 STARTS. ATTEMPT NUMBER  1, TIME INCREMENT  9.375E-03
 
	SYMMETRIC DIRECT SPARSE SOLVER RUNNING ON
 	1 HOST x 1 MPI RANK PER HOST x 1 THREAD PER RANK
        NUMBER OF EQUATIONS:  7248
        NUMBER OF RHS:        1
        NUMBER OF FLOPS:      8.357e+07
        SOLVER ELAPSED TIME:  14ms

               CONVERGENCE CHECKS FOR EQUILIBRIUM ITERATION     1


 AVERAGE FORCE                      8.854E-03   TIME AVG. FORCE       7.328E-03
 LARGEST SCALED RESIDUAL FORCE      9.091E-03   AT NODE        300   DOF  2
   INSTANCE: FRAME-1                                                                         
  CORRESPONDING RESIDUAL FORCE      9.091E-03
 LARGEST INCREMENT OF DISP.         7.610E-02   AT NODE          4   DOF  3
   INSTANCE: FRAME-1                                                                         
 LARGEST CORRECTION TO DISP.        4.739E-02   AT NODE         16   DOF  3
   INSTANCE: FRAME-1                                                                         
          FORCE     EQUILIBRIUM NOT ACHIEVED WITHIN TOLERANCE.

 AVERAGE MOMENT                     1.087E-03   TIME AVG. MOMENT      7.586E-04
 LARGEST SCALED RESIDUAL MOMENT    -7.574E-04   AT NODE        301   DOF  5
   INSTANCE: FRAME-1                                                                         
  CORRESPONDING RESIDUAL MOMENT    -7.574E-04
 LARGEST INCREMENT OF ROTATION      1.139E-03   AT NODE        274   DOF  4
   INSTANCE: FRAME-1                                                                         
 LARGEST CORRECTION TO ROTATION    -5.988E-04   AT NODE        286   DOF  5
   INSTANCE: FRAME-1                                                                         
          MOMENT    EQUILIBRIUM NOT ACHIEVED WITHIN TOLERANCE.
 
	SYMMETRIC DIRECT SPARSE SOLVER RUNNING ON
 	1 HOST x 1 MPI RANK PER HOST x 1 THREAD PER RANK
        NUMBER OF EQUATIONS:  7248
        NUMBER OF RHS:        1
        NUMBER OF FLOPS:      8.357e+07
        SOLVER ELAPSED TIME:  14ms

               CONVERGENCE CHECKS FOR EQUILIBRIUM ITERATION     2


 AVERAGE FORCE                      8.967E-03   TIME AVG. FORCE       7.366E-03
 LARGEST SCALED RESIDUAL FORCE     -2.076E-03   AT NODE        301   DOF  1
   INSTANCE: FRAME-1                                                                         
  CORRESPONDING RESIDUAL FORCE     -2.076E-03
 LARGEST INCREMENT OF DISP.         0.100       AT NODE          4   DOF  3
   INSTANCE: FRAME-1                                                                         
 LARGEST CORRECTION TO DISP.        2.353E-02   AT NODE         16   DOF  3
   INSTANCE: FRAME-1                                                                         
          FORCE     EQUILIBRIUM NOT ACHIEVED WITHIN TOLERANCE.

 AVERAGE MOMENT                     1.095E-03   TIME AVG. MOMENT      7.613E-04
 LARGEST SCALED RESIDUAL MOMENT    -1.731E-04   AT NODE        301   DOF  5
   INSTANCE: FRAME-1                                                                         
  CORRESPONDING RESIDUAL MOMENT    -1.731E-04
 LARGEST INCREMENT OF ROTATION     -1.319E-03   AT NODE        287   DOF  5
   INSTANCE: FRAME-1                                                                         
 LARGEST CORRECTION TO ROTATION    -3.052E-04   AT NODE        285   DOF  5
   INSTANCE: FRAME-1                                                                         
          MOMENT    EQUILIBRIUM NOT ACHIEVED WITHIN TOLERANCE.
 
	SYMMETRIC DIRECT SPARSE SOLVER RUNNING ON
 	1 HOST x 1 MPI RANK PER HOST x 1 THREAD PER RANK
        NUMBER OF EQUATIONS:  7248
        NUMBER OF RHS:        1
        NUMBER OF FLOPS:      8.357e+07
        SOLVER ELAPSED TIME:  15ms

               CONVERGENCE CHECKS FOR EQUILIBRIUM ITERATION     3


 AVERAGE FORCE                      8.998E-03   TIME AVG. FORCE       7.376E-03
 LARGEST SCALED RESIDUAL FORCE     -4.597E-04   AT NODE        301   DOF  1
   INSTANCE: FRAME-1                                                                         
  CORRESPONDING RESIDUAL FORCE     -4.597E-04
 LARGEST INCREMENT OF DISP.         0.110       AT NODE         16   DOF  3
   INSTANCE: FRAME-1                                                                         
 LARGEST CORRECTION TO DISP.        1.007E-02   AT NODE         16   DOF  3
   INSTANCE: FRAME-1                                                                         
          FORCE     EQUILIBRIUM NOT ACHIEVED WITHIN TOLERANCE.

 AVERAGE MOMENT                     1.097E-03   TIME AVG. MOMENT      7.617E-04
 LARGEST SCALED RESIDUAL MOMENT    -3.834E-05   AT NODE        301   DOF  5
   INSTANCE: FRAME-1                                                                         
  CORRESPONDING RESIDUAL MOMENT    -3.834E-05
 LARGEST INCREMENT OF ROTATION     -1.448E-03   AT NODE        287   DOF  5
   INSTANCE: FRAME-1                                                                         
 LARGEST CORRECTION TO ROTATION    -1.296E-04   AT NODE        289   DOF  5
   INSTANCE: FRAME-1                                                                         
          MOMENT    EQUILIBRIUM NOT ACHIEVED WITHIN TOLERANCE.
 
	SYMMETRIC DIRECT SPARSE SOLVER RUNNING ON
 	1 HOST x 1 MPI RANK PER HOST x 1 THREAD PER RANK
        NUMBER OF EQUATIONS:  7248
        NUMBER OF RHS:        1
        NUMBER OF FLOPS:      8.357e+07
        SOLVER ELAPSED TIME:  14ms

               CONVERGENCE CHECKS FOR EQUILIBRIUM ITERATION     4


 AVERAGE FORCE                      9.006E-03   TIME AVG. FORCE       7.379E-03
 LARGEST SCALED RESIDUAL FORCE     -5.562E-06   AT NODE        301   DOF  1
   INSTANCE: FRAME-1                                                                         
  CORRESPONDING RESIDUAL FORCE     -5.562E-06
 LARGEST INCREMENT OF DISP.         0.111       AT NODE         16   DOF  3
   INSTANCE: FRAME-1                                                                         
 LARGEST CORRECTION TO DISP.        1.109E-03   AT NODE         16   DOF  3
   INSTANCE: FRAME-1                                                                         
 ESTIMATE OF DISP.    CORRECTION    1.341E-05
 FORCE     EQUILIB. ACCEPTED BASED ON SMALL RESIDUAL AND ESTIMATED CORRECTION

 AVERAGE MOMENT                     1.097E-03   TIME AVG. MOMENT      7.620E-04
 LARGEST SCALED RESIDUAL MOMENT    -4.641E-07   AT NODE        301   DOF  5
   INSTANCE: FRAME-1                                                                         
  CORRESPONDING RESIDUAL MOMENT    -4.641E-07
 LARGEST INCREMENT OF ROTATION     -1.463E-03   AT NODE        287   DOF  5
   INSTANCE: FRAME-1                                                                         
 LARGEST CORRECTION TO ROTATION    -1.428E-05   AT NODE        289   DOF  5
   INSTANCE: FRAME-1                                                                         
          THE MOMENT    EQUILIBRIUM EQUATIONS HAVE CONVERGED
          TIME INCREMENT MAY NOW INCREASE TO    1.406E-02

 ITERATION SUMMARY FOR THE INCREMENT:   4 TOTAL ITERATIONS, OF WHICH
   0 ARE SEVERE DISCONTINUITY ITERATIONS AND  4 ARE EQUILIBRIUM ITERATIONS.

 TIME INCREMENT COMPLETED  9.375E-03,  FRACTION OF STEP COMPLETED  4.063E-02
 STEP TIME COMPLETED       4.063E-02,  TOTAL TIME COMPLETED        4.063E-02


  INCREMENT     4 STARTS. ATTEMPT NUMBER  1, TIME INCREMENT  1.406E-02
 
	SYMMETRIC DIRECT SPARSE SOLVER RUNNING ON
 	1 HOST x 1 MPI RANK PER HOST x 1 THREAD PER RANK
        NUMBER OF EQUATIONS:  7248
        NUMBER OF RHS:        1
        NUMBER OF FLOPS:      8.357e+07
        SOLVER ELAPSED TIME:  14ms

               CONVERGENCE CHECKS FOR EQUILIBRIUM ITERATION     1


 AVERAGE FORCE                      3.260E-02   TIME AVG. FORCE       1.368E-02
 LARGEST SCALED RESIDUAL FORCE     -0.668       AT NODE        160   DOF  1
   INSTANCE: FRAME-1                                                                         
  CORRESPONDING RESIDUAL FORCE     -0.668    
 LARGEST INCREMENT OF DISP.         0.593       AT NODE         16   DOF  3
   INSTANCE: FRAME-1                                                                         
 LARGEST CORRECTION TO DISP.        0.427       AT NODE         16   DOF  3
   INSTANCE: FRAME-1                                                                         
          FORCE     EQUILIBRIUM NOT ACHIEVED WITHIN TOLERANCE.

 AVERAGE MOMENT                     6.370E-03   TIME AVG. MOMENT      2.164E-03
 LARGEST SCALED RESIDUAL MOMENT     5.546E-02   AT NODE        161   DOF  4
   INSTANCE: FRAME-1                                                                         
  CORRESPONDING RESIDUAL MOMENT     5.546E-02
 LARGEST INCREMENT OF ROTATION     -7.516E-03   AT NODE        283   DOF  5
   INSTANCE: FRAME-1                                                                         
 LARGEST CORRECTION TO ROTATION    -5.421E-03   AT NODE        281   DOF  5
   INSTANCE: FRAME-1                                                                         
          MOMENT    EQUILIBRIUM NOT ACHIEVED WITHIN TOLERANCE.
 
	SYMMETRIC DIRECT SPARSE SOLVER RUNNING ON
 	1 HOST x 1 MPI RANK PER HOST x 1 THREAD PER RANK
        NUMBER OF EQUATIONS:  7248
        NUMBER OF RHS:        1
        NUMBER OF FLOPS:      8.357e+07
        SOLVER ELAPSED TIME:  14ms

               CONVERGENCE CHECKS FOR EQUILIBRIUM ITERATION     2


 AVERAGE FORCE                      1.268E-02   TIME AVG. FORCE       8.703E-03
 LARGEST SCALED RESIDUAL FORCE      1.408E-04   AT NODE        269   DOF  2
   INSTANCE: FRAME-1                                                                         
  CORRESPONDING RESIDUAL FORCE      1.408E-04
 LARGEST INCREMENT OF DISP.         0.598       AT NODE         16   DOF  3
   INSTANCE: FRAME-1                                                                         
 LARGEST CORRECTION TO DISP.        4.841E-03   AT NODE        232   DOF  3
   INSTANCE: FRAME-1                                                                         
          FORCE     EQUILIBRIUM NOT ACHIEVED WITHIN TOLERANCE.

 AVERAGE MOMENT                     1.594E-03   TIME AVG. MOMENT      9.699E-04
 LARGEST SCALED RESIDUAL MOMENT    -1.163E-05   AT NODE         11   DOF  4
   INSTANCE: FRAME-1                                                                         
  CORRESPONDING RESIDUAL MOMENT    -1.163E-05
 LARGEST INCREMENT OF ROTATION     -7.592E-03   AT NODE        283   DOF  5
   INSTANCE: FRAME-1                                                                         
 LARGEST CORRECTION TO ROTATION     1.247E-04   AT NODE        269   DOF  4
   INSTANCE: FRAME-1                                                                         
          MOMENT    EQUILIBRIUM NOT ACHIEVED WITHIN TOLERANCE.
 
	SYMMETRIC DIRECT SPARSE SOLVER RUNNING ON
 	1 HOST x 1 MPI RANK PER HOST x 1 THREAD PER RANK
        NUMBER OF EQUATIONS:  7248
        NUMBER OF RHS:        1
        NUMBER OF FLOPS:      8.357e+07
        SOLVER ELAPSED TIME:  14ms

               CONVERGENCE CHECKS FOR EQUILIBRIUM ITERATION     3


 AVERAGE FORCE                      1.231E-02   TIME AVG. FORCE       8.612E-03
 LARGEST SCALED RESIDUAL FORCE     -8.969E-02   AT NODE        160   DOF  1
   INSTANCE: FRAME-1                                                                         
  CORRESPONDING RESIDUAL FORCE     -8.969E-02
 LARGEST INCREMENT OF DISP.         0.728       AT NODE         16   DOF  3
   INSTANCE: FRAME-1                                                                         
 LARGEST CORRECTION TO DISP.        0.130       AT NODE         16   DOF  3
   INSTANCE: FRAME-1                                                                         
          FORCE     EQUILIBRIUM NOT ACHIEVED WITHIN TOLERANCE.

 AVERAGE MOMENT                     1.678E-03   TIME AVG. MOMENT      9.909E-04
 LARGEST SCALED RESIDUAL MOMENT     7.403E-03   AT NODE        161   DOF  4
   INSTANCE: FRAME-1                                                                         
  CORRESPONDING RESIDUAL MOMENT     7.403E-03
 LARGEST INCREMENT OF ROTATION     -9.276E-03   AT NODE        282   DOF  5
   INSTANCE: FRAME-1                                                                         
 LARGEST CORRECTION TO ROTATION    -1.797E-03   AT NODE        201   DOF  4
   INSTANCE: FRAME-1                                                                         
          MOMENT    EQUILIBRIUM NOT ACHIEVED WITHIN TOLERANCE.
 
	SYMMETRIC DIRECT SPARSE SOLVER RUNNING ON
 	1 HOST x 1 MPI RANK PER HOST x 1 THREAD PER RANK
        NUMBER OF EQUATIONS:  7248
        NUMBER OF RHS:        1
        NUMBER OF FLOPS:      8.357e+07
        SOLVER ELAPSED TIME:  14ms

               CONVERGENCE CHECKS FOR EQUILIBRIUM ITERATION     4


 AVERAGE FORCE                      1.324E-02   TIME AVG. FORCE       8.844E-03
 LARGEST SCALED RESIDUAL FORCE     -2.938E-04   AT NODE         25   DOF  2
   INSTANCE: FRAME-1                                                                         
  CORRESPONDING RESIDUAL FORCE     -2.938E-04
 LARGEST INCREMENT OF DISP.         0.721       AT NODE         16   DOF  3
   INSTANCE: FRAME-1                                                                         
 LARGEST CORRECTION TO DISP.       -7.198E-03   AT NODE          4   DOF  3
   INSTANCE: FRAME-1                                                                         
          FORCE     EQUILIBRIUM NOT ACHIEVED WITHIN TOLERANCE.

 AVERAGE MOMENT                     1.703E-03   TIME AVG. MOMENT      9.972E-04
 LARGEST SCALED RESIDUAL MOMENT    -2.389E-05   AT NODE        304   DOF  5
   INSTANCE: FRAME-1                                                                         
  CORRESPONDING RESIDUAL MOMENT    -2.389E-05
 LARGEST INCREMENT OF ROTATION     -9.185E-03   AT NODE        282   DOF  5
   INSTANCE: FRAME-1                                                                         
 LARGEST CORRECTION TO ROTATION    -9.686E-05   AT NODE        338   DOF  4
   INSTANCE: FRAME-1                                                                         
          MOMENT    EQUILIBRIUM NOT ACHIEVED WITHIN TOLERANCE.
 
	SYMMETRIC DIRECT SPARSE SOLVER RUNNING ON
 	1 HOST x 1 MPI RANK PER HOST x 1 THREAD PER RANK
        NUMBER OF EQUATIONS:  7248
        NUMBER OF RHS:        1
        NUMBER OF FLOPS:      8.357e+07
        SOLVER ELAPSED TIME:  14ms

               CONVERGENCE CHECKS FOR EQUILIBRIUM ITERATION     5


 AVERAGE FORCE                      1.315E-02   TIME AVG. FORCE       8.822E-03
 LARGEST SCALED RESIDUAL FORCE     -7.605E-04   AT NODE        160   DOF  1
   INSTANCE: FRAME-1                                                                         
  CORRESPONDING RESIDUAL FORCE     -7.605E-04
 LARGEST INCREMENT OF DISP.         0.708       AT NODE         16   DOF  3
   INSTANCE: FRAME-1                                                                         
 LARGEST CORRECTION TO DISP.       -1.241E-02   AT NODE         16   DOF  3
   INSTANCE: FRAME-1                                                                         
          FORCE     EQUILIBRIUM NOT ACHIEVED WITHIN TOLERANCE.

 AVERAGE MOMENT                     1.685E-03   TIME AVG. MOMENT      9.927E-04
 LARGEST SCALED RESIDUAL MOMENT     6.264E-05   AT NODE        161   DOF  4
   INSTANCE: FRAME-1                                                                         
  CORRESPONDING RESIDUAL MOMENT     6.264E-05
 LARGEST INCREMENT OF ROTATION     -9.030E-03   AT NODE        282   DOF  5
   INSTANCE: FRAME-1                                                                         
 LARGEST CORRECTION TO ROTATION     1.631E-04   AT NODE        201   DOF  4
   INSTANCE: FRAME-1                                                                         
          MOMENT    EQUILIBRIUM NOT ACHIEVED WITHIN TOLERANCE.
 
	SYMMETRIC DIRECT SPARSE SOLVER RUNNING ON
 	1 HOST x 1 MPI RANK PER HOST x 1 THREAD PER RANK
        NUMBER OF EQUATIONS:  7248
        NUMBER OF RHS:        1
        NUMBER OF FLOPS:      8.357e+07
        SOLVER ELAPSED TIME:  17ms

               CONVERGENCE CHECKS FOR EQUILIBRIUM ITERATION     6


 AVERAGE FORCE                      1.316E-02   TIME AVG. FORCE       8.825E-03
 LARGEST SCALED RESIDUAL FORCE     -2.327E-07   AT NODE        301   DOF  1
   INSTANCE: FRAME-1                                                                         
  CORRESPONDING RESIDUAL FORCE     -2.327E-07
 LARGEST INCREMENT OF DISP.         0.708       AT NODE         16   DOF  3
   INSTANCE: FRAME-1                                                                         
 LARGEST CORRECTION TO DISP.       -2.511E-04   AT NODE         16   DOF  3
   INSTANCE: FRAME-1                                                                         
          THE FORCE     EQUILIBRIUM EQUATIONS HAVE CONVERGED

 AVERAGE MOMENT                     1.687E-03   TIME AVG. MOMENT      9.934E-04
 LARGEST SCALED RESIDUAL MOMENT    -1.925E-08   AT NODE        301   DOF  5
   INSTANCE: FRAME-1                                                                         
  CORRESPONDING RESIDUAL MOMENT    -1.925E-08
 LARGEST INCREMENT OF ROTATION     -9.027E-03   AT NODE        282   DOF  5
   INSTANCE: FRAME-1                                                                         
 LARGEST CORRECTION TO ROTATION     3.199E-06   AT NODE        195   DOF  4
   INSTANCE: FRAME-1                                                                         
          THE MOMENT    EQUILIBRIUM EQUATIONS HAVE CONVERGED

 ITERATION SUMMARY FOR THE INCREMENT:   6 TOTAL ITERATIONS, OF WHICH
   0 ARE SEVERE DISCONTINUITY ITERATIONS AND  6 ARE EQUILIBRIUM ITERATIONS.

 TIME INCREMENT COMPLETED  1.406E-02,  FRACTION OF STEP COMPLETED  5.469E-02
 STEP TIME COMPLETED       5.469E-02,  TOTAL TIME COMPLETED        5.469E-02


  INCREMENT     5 STARTS. ATTEMPT NUMBER  1, TIME INCREMENT  1.406E-02
 
	SYMMETRIC DIRECT SPARSE SOLVER RUNNING ON
 	1 HOST x 1 MPI RANK PER HOST x 1 THREAD PER RANK
        NUMBER OF EQUATIONS:  7248
        NUMBER OF RHS:        1
        NUMBER OF FLOPS:      8.357e+07
        SOLVER ELAPSED TIME:  14ms

               CONVERGENCE CHECKS FOR EQUILIBRIUM ITERATION     1


 AVERAGE FORCE                      2.311E-02   TIME AVG. FORCE       1.168E-02
 LARGEST SCALED RESIDUAL FORCE     -0.351       AT NODE         25   DOF  2
   INSTANCE: FRAME-1                                                                         
  CORRESPONDING RESIDUAL FORCE     -0.351    
 LARGEST INCREMENT OF DISP.         0.521       AT NODE         16   DOF  3
   INSTANCE: FRAME-1                                                                         
 LARGEST CORRECTION TO DISP.       -0.187       AT NODE          4   DOF  3
   INSTANCE: FRAME-1                                                                         
          FORCE     EQUILIBRIUM NOT ACHIEVED WITHIN TOLERANCE.

 AVERAGE MOMENT                     3.981E-03   TIME AVG. MOMENT      1.591E-03
 LARGEST SCALED RESIDUAL MOMENT     2.826E-02   AT NODE         32   DOF  5
   INSTANCE: FRAME-1                                                                         
  CORRESPONDING RESIDUAL MOMENT     2.826E-02
 LARGEST INCREMENT OF ROTATION     -7.520E-03   AT NODE        203   DOF  4
   INSTANCE: FRAME-1                                                                         
 LARGEST CORRECTION TO ROTATION    -3.187E-03   AT NODE        326   DOF  4
   INSTANCE: FRAME-1                                                                         
          MOMENT    EQUILIBRIUM NOT ACHIEVED WITHIN TOLERANCE.
 
	SYMMETRIC DIRECT SPARSE SOLVER RUNNING ON
 	1 HOST x 1 MPI RANK PER HOST x 1 THREAD PER RANK
        NUMBER OF EQUATIONS:  7248
        NUMBER OF RHS:        1
        NUMBER OF FLOPS:      8.357e+07
        SOLVER ELAPSED TIME:  14ms

               CONVERGENCE CHECKS FOR EQUILIBRIUM ITERATION     2


 AVERAGE FORCE                      2.151E-02   TIME AVG. FORCE       1.136E-02
 LARGEST SCALED RESIDUAL FORCE      8.758E-03   AT NODE        277   DOF  2
   INSTANCE: FRAME-1                                                                         
  CORRESPONDING RESIDUAL FORCE      8.758E-03
 LARGEST INCREMENT OF DISP.         0.533       AT NODE         16   DOF  3
   INSTANCE: FRAME-1                                                                         
 LARGEST CORRECTION TO DISP.        1.778E-02   AT NODE        112   DOF  3
   INSTANCE: FRAME-1                                                                         
          FORCE     EQUILIBRIUM NOT ACHIEVED WITHIN TOLERANCE.

 AVERAGE MOMENT                     3.159E-03   TIME AVG. MOMENT      1.426E-03
 LARGEST SCALED RESIDUAL MOMENT    -7.054E-04   AT NODE        176   DOF  4
   INSTANCE: FRAME-1                                                                         
  CORRESPONDING RESIDUAL MOMENT    -7.054E-04
 LARGEST INCREMENT OF ROTATION      7.894E-03   AT NODE        269   DOF  4
   INSTANCE: FRAME-1                                                                         
 LARGEST CORRECTION TO ROTATION     8.485E-04   AT NODE        765   DOF  4
   INSTANCE: FRAME-1                                                                         
          MOMENT    EQUILIBRIUM NOT ACHIEVED WITHIN TOLERANCE.
 
	SYMMETRIC DIRECT SPARSE SOLVER RUNNING ON
 	1 HOST x 1 MPI RANK PER HOST x 1 THREAD PER RANK
        NUMBER OF EQUATIONS:  7248
        NUMBER OF RHS:        1
        NUMBER OF FLOPS:      8.357e+07
        SOLVER ELAPSED TIME:  14ms

               CONVERGENCE CHECKS FOR EQUILIBRIUM ITERATION     3


 AVERAGE FORCE                      2.113E-02   TIME AVG. FORCE       1.129E-02
 LARGEST SCALED RESIDUAL FORCE     -1.028E-02   AT NODE         84   DOF  2
   INSTANCE: FRAME-1                                                                         
  CORRESPONDING RESIDUAL FORCE     -1.028E-02
 LARGEST INCREMENT OF DISP.         0.539       AT NODE         16   DOF  3
   INSTANCE: FRAME-1                                                                         
 LARGEST CORRECTION TO DISP.        2.015E-02   AT NODE        117   DOF  3
   INSTANCE: FRAME-1                                                                         
          FORCE     EQUILIBRIUM NOT ACHIEVED WITHIN TOLERANCE.

 AVERAGE MOMENT                     3.106E-03   TIME AVG. MOMENT      1.416E-03
 LARGEST SCALED RESIDUAL MOMENT     6.675E-04   AT NODE         84   DOF  4
   INSTANCE: FRAME-1                                                                         
  CORRESPONDING RESIDUAL MOMENT     6.675E-04
 LARGEST INCREMENT OF ROTATION      8.200E-03   AT NODE        269   DOF  4
   INSTANCE: FRAME-1                                                                         
 LARGEST CORRECTION TO ROTATION    -9.232E-04   AT NODE         84   DOF  4
   INSTANCE: FRAME-1                                                                         
          MOMENT    EQUILIBRIUM NOT ACHIEVED WITHIN TOLERANCE.
 
	SYMMETRIC DIRECT SPARSE SOLVER RUNNING ON
 	1 HOST x 1 MPI RANK PER HOST x 1 THREAD PER RANK
        NUMBER OF EQUATIONS:  7248
        NUMBER OF RHS:        1
        NUMBER OF FLOPS:      8.357e+07
        SOLVER ELAPSED TIME:  14ms

               CONVERGENCE CHECKS FOR EQUILIBRIUM ITERATION     4


 AVERAGE FORCE                      2.123E-02   TIME AVG. FORCE       1.131E-02
 LARGEST SCALED RESIDUAL FORCE      3.865E-04   AT NODE        169   DOF  1
   INSTANCE: FRAME-1                                                                         
  CORRESPONDING RESIDUAL FORCE      3.865E-04
 LARGEST INCREMENT OF DISP.         0.544       AT NODE         16   DOF  3
   INSTANCE: FRAME-1                                                                         
 LARGEST CORRECTION TO DISP.        4.465E-03   AT NODE          4   DOF  3
   INSTANCE: FRAME-1                                                                         
          FORCE     EQUILIBRIUM NOT ACHIEVED WITHIN TOLERANCE.

 AVERAGE MOMENT                     3.098E-03   TIME AVG. MOMENT      1.414E-03
 LARGEST SCALED RESIDUAL MOMENT    -3.204E-05   AT NODE        176   DOF  4
   INSTANCE: FRAME-1                                                                         
  CORRESPONDING RESIDUAL MOMENT    -3.204E-05
 LARGEST INCREMENT OF ROTATION      8.310E-03   AT NODE        269   DOF  4
   INSTANCE: FRAME-1                                                                         
 LARGEST CORRECTION TO ROTATION    -1.656E-04   AT NODE        143   DOF  5
   INSTANCE: FRAME-1                                                                         
          MOMENT    EQUILIBRIUM NOT ACHIEVED WITHIN TOLERANCE.
 
	SYMMETRIC DIRECT SPARSE SOLVER RUNNING ON
 	1 HOST x 1 MPI RANK PER HOST x 1 THREAD PER RANK
        NUMBER OF EQUATIONS:  7248
        NUMBER OF RHS:        1
        NUMBER OF FLOPS:      8.357e+07
        SOLVER ELAPSED TIME:  14ms

               CONVERGENCE CHECKS FOR EQUILIBRIUM ITERATION     5


 AVERAGE FORCE                      2.123E-02   TIME AVG. FORCE       1.131E-02
 LARGEST SCALED RESIDUAL FORCE     -2.193E-05   AT NODE        196   DOF  1
   INSTANCE: FRAME-1                                                                         
  CORRESPONDING RESIDUAL FORCE     -2.193E-05
 LARGEST INCREMENT OF DISP.         0.545       AT NODE         16   DOF  3
   INSTANCE: FRAME-1                                                                         
 LARGEST CORRECTION TO DISP.        1.127E-03   AT NODE        116   DOF  3
   INSTANCE: FRAME-1                                                                         
          THE FORCE     EQUILIBRIUM EQUATIONS HAVE CONVERGED

 AVERAGE MOMENT                     3.100E-03   TIME AVG. MOMENT      1.415E-03
 LARGEST SCALED RESIDUAL MOMENT    -1.687E-06   AT NODE        176   DOF  4
   INSTANCE: FRAME-1                                                                         
  CORRESPONDING RESIDUAL MOMENT    -1.687E-06
 LARGEST INCREMENT OF ROTATION      8.335E-03   AT NODE        269   DOF  4
   INSTANCE: FRAME-1                                                                         
 LARGEST CORRECTION TO ROTATION     4.255E-05   AT NODE        196   DOF  5
   INSTANCE: FRAME-1                                                                         
          THE MOMENT    EQUILIBRIUM EQUATIONS HAVE CONVERGED

 ITERATION SUMMARY FOR THE INCREMENT:   5 TOTAL ITERATIONS, OF WHICH
   0 ARE SEVERE DISCONTINUITY ITERATIONS AND  5 ARE EQUILIBRIUM ITERATIONS.

 TIME INCREMENT COMPLETED  1.406E-02,  FRACTION OF STEP COMPLETED  6.875E-02
 STEP TIME COMPLETED       6.875E-02,  TOTAL TIME COMPLETED        6.875E-02


  INCREMENT     6 STARTS. ATTEMPT NUMBER  1, TIME INCREMENT  1.406E-02
 
	SYMMETRIC DIRECT SPARSE SOLVER RUNNING ON
 	1 HOST x 1 MPI RANK PER HOST x 1 THREAD PER RANK
        NUMBER OF EQUATIONS:  7248
        NUMBER OF RHS:        1
        NUMBER OF FLOPS:      8.357e+07
        SOLVER ELAPSED TIME:  15ms

               CONVERGENCE CHECKS FOR EQUILIBRIUM ITERATION     1


 AVERAGE FORCE                      2.697E-02   TIME AVG. FORCE       1.392E-02
 LARGEST SCALED RESIDUAL FORCE     -0.195       AT NODE        160   DOF  1
   INSTANCE: FRAME-1                                                                         
  CORRESPONDING RESIDUAL FORCE     -0.195    
 LARGEST INCREMENT OF DISP.         0.341       AT NODE         16   DOF  3
   INSTANCE: FRAME-1                                                                         
 LARGEST CORRECTION TO DISP.       -0.204       AT NODE         16   DOF  3
   INSTANCE: FRAME-1                                                                         
          FORCE     EQUILIBRIUM NOT ACHIEVED WITHIN TOLERANCE.

 AVERAGE MOMENT                     4.703E-03   TIME AVG. MOMENT      1.963E-03
 LARGEST SCALED RESIDUAL MOMENT     1.650E-02   AT NODE        161   DOF  4
   INSTANCE: FRAME-1                                                                         
  CORRESPONDING RESIDUAL MOMENT     1.650E-02
 LARGEST INCREMENT OF ROTATION      6.084E-03   AT NODE        271   DOF  4
   INSTANCE: FRAME-1                                                                         
 LARGEST CORRECTION TO ROTATION    -2.670E-03   AT NODE         70   DOF  5
   INSTANCE: FRAME-1                                                                         
          MOMENT    EQUILIBRIUM NOT ACHIEVED WITHIN TOLERANCE.
 
	SYMMETRIC DIRECT SPARSE SOLVER RUNNING ON
 	1 HOST x 1 MPI RANK PER HOST x 1 THREAD PER RANK
        NUMBER OF EQUATIONS:  7248
        NUMBER OF RHS:        1
        NUMBER OF FLOPS:      8.357e+07
        SOLVER ELAPSED TIME:  16ms

               CONVERGENCE CHECKS FOR EQUILIBRIUM ITERATION     2


 AVERAGE FORCE                      2.690E-02   TIME AVG. FORCE       1.391E-02
 LARGEST SCALED RESIDUAL FORCE      4.269E-04   AT NODE        176   DOF  2
   INSTANCE: FRAME-1                                                                         
  CORRESPONDING RESIDUAL FORCE      4.269E-04
 LARGEST INCREMENT OF DISP.         0.328       AT NODE         16   DOF  3
   INSTANCE: FRAME-1                                                                         
 LARGEST CORRECTION TO DISP.       -1.234E-02   AT NODE         16   DOF  3
   INSTANCE: FRAME-1                                                                         
          FORCE     EQUILIBRIUM NOT ACHIEVED WITHIN TOLERANCE.

 AVERAGE MOMENT                     4.166E-03   TIME AVG. MOMENT      1.873E-03
 LARGEST SCALED RESIDUAL MOMENT    -3.663E-05   AT NODE        176   DOF  4
   INSTANCE: FRAME-1                                                                         
  CORRESPONDING RESIDUAL MOMENT    -3.663E-05
 LARGEST INCREMENT OF ROTATION      5.963E-03   AT NODE        271   DOF  4
   INSTANCE: FRAME-1                                                                         
 LARGEST CORRECTION TO ROTATION     1.914E-04   AT NODE        193   DOF  4
   INSTANCE: FRAME-1                                                                         
          MOMENT    EQUILIBRIUM NOT ACHIEVED WITHIN TOLERANCE.
 
	SYMMETRIC DIRECT SPARSE SOLVER RUNNING ON
 	1 HOST x 1 MPI RANK PER HOST x 1 THREAD PER RANK
        NUMBER OF EQUATIONS:  7248
        NUMBER OF RHS:        1
        NUMBER OF FLOPS:      8.357e+07
        SOLVER ELAPSED TIME:  14ms

               CONVERGENCE CHECKS FOR EQUILIBRIUM ITERATION     3


 AVERAGE FORCE                      2.656E-02   TIME AVG. FORCE       1.385E-02
 LARGEST SCALED RESIDUAL FORCE      1.379E-02   AT NODE        169   DOF  1
   INSTANCE: FRAME-1                                                                         
  CORRESPONDING RESIDUAL FORCE      1.379E-02
 LARGEST INCREMENT OF DISP.         0.297       AT NODE         16   DOF  3
   INSTANCE: FRAME-1                                                                         
 LARGEST CORRECTION TO DISP.       -3.088E-02   AT NODE         16   DOF  3
   INSTANCE: FRAME-1                                                                         
          FORCE     EQUILIBRIUM NOT ACHIEVED WITHIN TOLERANCE.

 AVERAGE MOMENT                     4.094E-03   TIME AVG. MOMENT      1.861E-03
 LARGEST SCALED RESIDUAL MOMENT    -1.150E-03   AT NODE        176   DOF  4
   INSTANCE: FRAME-1                                                                         
  CORRESPONDING RESIDUAL MOMENT    -1.150E-03
 LARGEST INCREMENT OF ROTATION      5.303E-03   AT NODE        270   DOF  4
   INSTANCE: FRAME-1                                                                         
 LARGEST CORRECTION TO ROTATION    -6.696E-04   AT NODE        781   DOF  4
   INSTANCE: FRAME-1                                                                         
          MOMENT    EQUILIBRIUM NOT ACHIEVED WITHIN TOLERANCE.
 
	SYMMETRIC DIRECT SPARSE SOLVER RUNNING ON
 	1 HOST x 1 MPI RANK PER HOST x 1 THREAD PER RANK
        NUMBER OF EQUATIONS:  7248
        NUMBER OF RHS:        1
        NUMBER OF FLOPS:      8.357e+07
        SOLVER ELAPSED TIME:  14ms

               CONVERGENCE CHECKS FOR EQUILIBRIUM ITERATION     4


 AVERAGE FORCE                      2.662E-02   TIME AVG. FORCE       1.386E-02
 LARGEST SCALED RESIDUAL FORCE      6.399E-07   AT NODE        169   DOF  1
   INSTANCE: FRAME-1                                                                         
  CORRESPONDING RESIDUAL FORCE      6.399E-07
 LARGEST INCREMENT OF DISP.         0.297       AT NODE         16   DOF  3
   INSTANCE: FRAME-1                                                                         
 LARGEST CORRECTION TO DISP.       -2.884E-04   AT NODE         16   DOF  3
   INSTANCE: FRAME-1                                                                         
          THE FORCE     EQUILIBRIUM EQUATIONS HAVE CONVERGED

 AVERAGE MOMENT                     4.092E-03   TIME AVG. MOMENT      1.861E-03
 LARGEST SCALED RESIDUAL MOMENT    -5.469E-08   AT NODE        176   DOF  4
   INSTANCE: FRAME-1                                                                         
  CORRESPONDING RESIDUAL MOMENT    -5.469E-08
 LARGEST INCREMENT OF ROTATION      5.297E-03   AT NODE        270   DOF  4
   INSTANCE: FRAME-1                                                                         
 LARGEST CORRECTION TO ROTATION    -5.652E-06   AT NODE        271   DOF  4
   INSTANCE: FRAME-1                                                                         
          THE MOMENT    EQUILIBRIUM EQUATIONS HAVE CONVERGED

 ITERATION SUMMARY FOR THE INCREMENT:   4 TOTAL ITERATIONS, OF WHICH
   0 ARE SEVERE DISCONTINUITY ITERATIONS AND  4 ARE EQUILIBRIUM ITERATIONS.

 TIME INCREMENT COMPLETED  1.406E-02,  FRACTION OF STEP COMPLETED  8.281E-02
 STEP TIME COMPLETED       8.281E-02,  TOTAL TIME COMPLETED        8.281E-02


  INCREMENT     7 STARTS. ATTEMPT NUMBER  1, TIME INCREMENT  1.406E-02
 
	SYMMETRIC DIRECT SPARSE SOLVER RUNNING ON
 	1 HOST x 1 MPI RANK PER HOST x 1 THREAD PER RANK
        NUMBER OF EQUATIONS:  7248
        NUMBER OF RHS:        1
        NUMBER OF FLOPS:      8.357e+07
        SOLVER ELAPSED TIME:  14ms

               CONVERGENCE CHECKS FOR EQUILIBRIUM ITERATION     1


 AVERAGE FORCE                      3.080E-02   TIME AVG. FORCE       1.628E-02
 LARGEST SCALED RESIDUAL FORCE      5.527E-02   AT NODE        176   DOF  2
   INSTANCE: FRAME-1                                                                         
  CORRESPONDING RESIDUAL FORCE      5.527E-02
 LARGEST INCREMENT OF DISP.         0.235       AT NODE        235   DOF  3
   INSTANCE: FRAME-1                                                                         
 LARGEST CORRECTION TO DISP.       -6.458E-02   AT NODE         16   DOF  3
   INSTANCE: FRAME-1                                                                         
          FORCE     EQUILIBRIUM NOT ACHIEVED WITHIN TOLERANCE.

 AVERAGE MOMENT                     4.976E-03   TIME AVG. MOMENT      2.306E-03
 LARGEST SCALED RESIDUAL MOMENT    -4.717E-03   AT NODE        176   DOF  4
   INSTANCE: FRAME-1                                                                         
  CORRESPONDING RESIDUAL MOMENT    -4.717E-03
 LARGEST INCREMENT OF ROTATION      4.003E-03   AT NODE        271   DOF  4
   INSTANCE: FRAME-1                                                                         
 LARGEST CORRECTION TO ROTATION    -1.304E-03   AT NODE        269   DOF  4
   INSTANCE: FRAME-1                                                                         
          MOMENT    EQUILIBRIUM NOT ACHIEVED WITHIN TOLERANCE.
 
	SYMMETRIC DIRECT SPARSE SOLVER RUNNING ON
 	1 HOST x 1 MPI RANK PER HOST x 1 THREAD PER RANK
        NUMBER OF EQUATIONS:  7248
        NUMBER OF RHS:        1
        NUMBER OF FLOPS:      8.357e+07
        SOLVER ELAPSED TIME:  15ms

               CONVERGENCE CHECKS FOR EQUILIBRIUM ITERATION     2


 AVERAGE FORCE                      3.092E-02   TIME AVG. FORCE       1.630E-02
 LARGEST SCALED RESIDUAL FORCE      1.378E-03   AT NODE        169   DOF  1
   INSTANCE: FRAME-1                                                                         
  CORRESPONDING RESIDUAL FORCE      1.378E-03
 LARGEST INCREMENT OF DISP.         0.225       AT NODE        235   DOF  3
   INSTANCE: FRAME-1                                                                         
 LARGEST CORRECTION TO DISP.       -1.030E-02   AT NODE        245   DOF  3
   INSTANCE: FRAME-1                                                                         
          FORCE     EQUILIBRIUM NOT ACHIEVED WITHIN TOLERANCE.

 AVERAGE MOMENT                     4.934E-03   TIME AVG. MOMENT      2.300E-03
 LARGEST SCALED RESIDUAL MOMENT    -1.152E-04   AT NODE        176   DOF  4
   INSTANCE: FRAME-1                                                                         
  CORRESPONDING RESIDUAL MOMENT    -1.152E-04
 LARGEST INCREMENT OF ROTATION      3.780E-03   AT NODE        270   DOF  4
   INSTANCE: FRAME-1                                                                         
 LARGEST CORRECTION TO ROTATION    -2.556E-04   AT NODE        277   DOF  4
   INSTANCE: FRAME-1                                                                         
          MOMENT    EQUILIBRIUM NOT ACHIEVED WITHIN TOLERANCE.
 
	SYMMETRIC DIRECT SPARSE SOLVER RUNNING ON
 	1 HOST x 1 MPI RANK PER HOST x 1 THREAD PER RANK
        NUMBER OF EQUATIONS:  7248
        NUMBER OF RHS:        1
        NUMBER OF FLOPS:      8.357e+07
        SOLVER ELAPSED TIME:  15ms

               CONVERGENCE CHECKS FOR EQUILIBRIUM ITERATION     3


 AVERAGE FORCE                      3.089E-02   TIME AVG. FORCE       1.629E-02
 LARGEST SCALED RESIDUAL FORCE      3.278E-03   AT NODE        169   DOF  1
   INSTANCE: FRAME-1                                                                         
  CORRESPONDING RESIDUAL FORCE      3.278E-03
 LARGEST INCREMENT OF DISP.         0.212       AT NODE        235   DOF  3
   INSTANCE: FRAME-1                                                                         
 LARGEST CORRECTION TO DISP.       -1.230E-02   AT NODE        246   DOF  3
   INSTANCE: FRAME-1                                                                         
          FORCE     EQUILIBRIUM NOT ACHIEVED WITHIN TOLERANCE.

 AVERAGE MOMENT                     4.917E-03   TIME AVG. MOMENT      2.297E-03
 LARGEST SCALED RESIDUAL MOMENT    -2.724E-04   AT NODE        176   DOF  4
   INSTANCE: FRAME-1                                                                         
  CORRESPONDING RESIDUAL MOMENT    -2.724E-04
 LARGEST INCREMENT OF ROTATION      3.456E-03   AT NODE        270   DOF  4
   INSTANCE: FRAME-1                                                                         
 LARGEST CORRECTION TO ROTATION    -3.516E-04   AT NODE        777   DOF  4
   INSTANCE: FRAME-1                                                                         
          MOMENT    EQUILIBRIUM NOT ACHIEVED WITHIN TOLERANCE.
 
	SYMMETRIC DIRECT SPARSE SOLVER RUNNING ON
 	1 HOST x 1 MPI RANK PER HOST x 1 THREAD PER RANK
        NUMBER OF EQUATIONS:  7248
        NUMBER OF RHS:        1
        NUMBER OF FLOPS:      8.357e+07
        SOLVER ELAPSED TIME:  17ms

               CONVERGENCE CHECKS FOR EQUILIBRIUM ITERATION     4


 AVERAGE FORCE                      3.090E-02   TIME AVG. FORCE       1.629E-02
 LARGEST SCALED RESIDUAL FORCE      6.155E-06   AT NODE        169   DOF  1
   INSTANCE: FRAME-1                                                                         
  CORRESPONDING RESIDUAL FORCE      6.155E-06
 LARGEST INCREMENT OF DISP.         0.212       AT NODE        235   DOF  3
   INSTANCE: FRAME-1                                                                         
 LARGEST CORRECTION TO DISP.       -5.252E-04   AT NODE        248   DOF  3
   INSTANCE: FRAME-1                                                                         
          THE FORCE     EQUILIBRIUM EQUATIONS HAVE CONVERGED

 AVERAGE MOMENT                     4.921E-03   TIME AVG. MOMENT      2.298E-03
 LARGEST SCALED RESIDUAL MOMENT    -5.116E-07   AT NODE        176   DOF  4
   INSTANCE: FRAME-1                                                                         
  CORRESPONDING RESIDUAL MOMENT    -5.116E-07
 LARGEST INCREMENT OF ROTATION      3.441E-03   AT NODE        270   DOF  4
   INSTANCE: FRAME-1                                                                         
 LARGEST CORRECTION TO ROTATION     1.733E-05   AT NODE        145   DOF  5
   INSTANCE: FRAME-1                                                                         
          THE MOMENT    EQUILIBRIUM EQUATIONS HAVE CONVERGED
          TIME INCREMENT MAY NOW INCREASE TO    2.109E-02

 ITERATION SUMMARY FOR THE INCREMENT:   4 TOTAL ITERATIONS, OF WHICH
   0 ARE SEVERE DISCONTINUITY ITERATIONS AND  4 ARE EQUILIBRIUM ITERATIONS.

 TIME INCREMENT COMPLETED  1.406E-02,  FRACTION OF STEP COMPLETED  9.688E-02
 STEP TIME COMPLETED       9.688E-02,  TOTAL TIME COMPLETED        9.688E-02


  INCREMENT     8 STARTS. ATTEMPT NUMBER  1, TIME INCREMENT  2.109E-02
 
	SYMMETRIC DIRECT SPARSE SOLVER RUNNING ON
 	1 HOST x 1 MPI RANK PER HOST x 1 THREAD PER RANK
        NUMBER OF EQUATIONS:  7248
        NUMBER OF RHS:        1
        NUMBER OF FLOPS:      8.357e+07
        SOLVER ELAPSED TIME:  14ms

               CONVERGENCE CHECKS FOR EQUILIBRIUM ITERATION     1


 AVERAGE FORCE                      3.730E-02   TIME AVG. FORCE       1.892E-02
 LARGEST SCALED RESIDUAL FORCE      1.765E-02   AT NODE        172   DOF  1
   INSTANCE: FRAME-1                                                                         
  CORRESPONDING RESIDUAL FORCE      1.765E-02
 LARGEST INCREMENT OF DISP.         0.377       AT NODE        235   DOF  3
   INSTANCE: FRAME-1                                                                         
 LARGEST CORRECTION TO DISP.        5.952E-02   AT NODE        234   DOF  3
   INSTANCE: FRAME-1                                                                         
          FORCE     EQUILIBRIUM NOT ACHIEVED WITHIN TOLERANCE.

 AVERAGE MOMENT                     6.451E-03   TIME AVG. MOMENT      2.817E-03
 LARGEST SCALED RESIDUAL MOMENT    -1.417E-03   AT NODE        173   DOF  4
   INSTANCE: FRAME-1                                                                         
  CORRESPONDING RESIDUAL MOMENT    -1.417E-03
[...]
   INSTANCE: FRAME-1                                                                         
 ESTIMATE OF ROTATION CORRECTION    6.072E-06
 MOMENT    EQUILIB. ACCEPTED BASED ON SMALL RESIDUAL AND ESTIMATED CORRECTION
 
	SYMMETRIC DIRECT SPARSE SOLVER RUNNING ON
 	1 HOST x 1 MPI RANK PER HOST x 1 THREAD PER RANK
        NUMBER OF EQUATIONS:  7248
        NUMBER OF RHS:        1
        NUMBER OF FLOPS:      8.357e+07
        SOLVER ELAPSED TIME:  15ms

               CONVERGENCE CHECKS FOR EQUILIBRIUM ITERATION     3


 AVERAGE FORCE                      0.187       TIME AVG. FORCE       0.181    
 LARGEST SCALED RESIDUAL FORCE      1.767E-03   AT NODE        173   DOF  2
   INSTANCE: FRAME-1                                                                         
  CORRESPONDING RESIDUAL FORCE      1.767E-03
 LARGEST INCREMENT OF DISP.          1.33       AT NODE         10   DOF  2
   INSTANCE: FRAME-1                                                                         
 LARGEST CORRECTION TO DISP.        1.075E-02   AT NODE         10   DOF  2
   INSTANCE: FRAME-1                                                                         
          FORCE     EQUILIBRIUM NOT ACHIEVED WITHIN TOLERANCE.

 AVERAGE MOMENT                     0.139       TIME AVG. MOMENT      0.151    
 LARGEST SCALED RESIDUAL MOMENT     2.059E-04   AT NODE         11   DOF  5
   INSTANCE: FRAME-1                                                                         
  CORRESPONDING RESIDUAL MOMENT     2.059E-04
 LARGEST INCREMENT OF ROTATION     -3.364E-02   AT NODE          7   DOF  4
   INSTANCE: FRAME-1                                                                         
 LARGEST CORRECTION TO ROTATION     2.595E-04   AT NODE         11   DOF  5
   INSTANCE: FRAME-1                                                                         
          THE MOMENT    EQUILIBRIUM EQUATIONS HAVE CONVERGED
 
	SYMMETRIC DIRECT SPARSE SOLVER RUNNING ON
 	1 HOST x 1 MPI RANK PER HOST x 1 THREAD PER RANK
        NUMBER OF EQUATIONS:  7248
        NUMBER OF RHS:        1
        NUMBER OF FLOPS:      8.357e+07
        SOLVER ELAPSED TIME:  15ms

               CONVERGENCE CHECKS FOR EQUILIBRIUM ITERATION     4


 AVERAGE FORCE                      0.187       TIME AVG. FORCE       0.181    
 LARGEST SCALED RESIDUAL FORCE     -1.069E-06   AT NODE        165   DOF  3
   INSTANCE: FRAME-1                                                                         
  CORRESPONDING RESIDUAL FORCE     -1.069E-06
 LARGEST INCREMENT OF DISP.          1.33       AT NODE         10   DOF  2
   INSTANCE: FRAME-1                                                                         
 LARGEST CORRECTION TO DISP.       -1.643E-04   AT NODE         16   DOF  3
   INSTANCE: FRAME-1                                                                         
          THE FORCE     EQUILIBRIUM EQUATIONS HAVE CONVERGED

 AVERAGE MOMENT                     0.139       TIME AVG. MOMENT      0.151    
 LARGEST SCALED RESIDUAL MOMENT     3.323E-06   AT NODE          7   DOF  4
   INSTANCE: FRAME-1                                                                         
  CORRESPONDING RESIDUAL MOMENT     3.323E-06
 LARGEST INCREMENT OF ROTATION     -3.364E-02   AT NODE          7   DOF  4
   INSTANCE: FRAME-1                                                                         
 LARGEST CORRECTION TO ROTATION     1.061E-05   AT NODE         56   DOF  4
   INSTANCE: FRAME-1                                                                         
          THE MOMENT    EQUILIBRIUM EQUATIONS HAVE CONVERGED
          TIME INCREMENT MAY NOW INCREASE TO    0.225    

 ITERATION SUMMARY FOR THE INCREMENT:   4 TOTAL ITERATIONS, OF WHICH
   0 ARE SEVERE DISCONTINUITY ITERATIONS AND  4 ARE EQUILIBRIUM ITERATIONS.

 TIME INCREMENT COMPLETED  0.150    ,  FRACTION OF STEP COMPLETED  0.550    
 STEP TIME COMPLETED       0.550    ,  TOTAL TIME COMPLETED         2.55    


  INCREMENT     6 STARTS. ATTEMPT NUMBER  1, TIME INCREMENT  0.225    
 
	SYMMETRIC DIRECT SPARSE SOLVER RUNNING ON
 	1 HOST x 1 MPI RANK PER HOST x 1 THREAD PER RANK
        NUMBER OF EQUATIONS:  7248
        NUMBER OF RHS:        1
        NUMBER OF FLOPS:      8.357e+07
        SOLVER ELAPSED TIME:  15ms

               CONVERGENCE CHECKS FOR EQUILIBRIUM ITERATION     1


 AVERAGE FORCE                      0.192       TIME AVG. FORCE       0.182    
 LARGEST SCALED RESIDUAL FORCE      0.929       AT NODE        170   DOF  1
   INSTANCE: FRAME-1                                                                         
  CORRESPONDING RESIDUAL FORCE      0.929    
 LARGEST INCREMENT OF DISP.          2.08       AT NODE         10   DOF  2
   INSTANCE: FRAME-1                                                                         
 LARGEST CORRECTION TO DISP.       -0.243       AT NODE          4   DOF  3
   INSTANCE: FRAME-1                                                                         
          FORCE     EQUILIBRIUM NOT ACHIEVED WITHIN TOLERANCE.

 AVERAGE MOMENT                     0.130       TIME AVG. MOMENT      0.147    
 LARGEST SCALED RESIDUAL MOMENT    -0.122       AT NODE        175   DOF  4
   INSTANCE: FRAME-1                                                                         
  CORRESPONDING RESIDUAL MOMENT    -0.122    
 LARGEST INCREMENT OF ROTATION     -5.647E-02   AT NODE          7   DOF  4
   INSTANCE: FRAME-1                                                                         
 LARGEST CORRECTION TO ROTATION     6.161E-03   AT NODE         97   DOF  5
   INSTANCE: FRAME-1                                                                         
          MOMENT    EQUILIBRIUM NOT ACHIEVED WITHIN TOLERANCE.
 
	SYMMETRIC DIRECT SPARSE SOLVER RUNNING ON
 	1 HOST x 1 MPI RANK PER HOST x 1 THREAD PER RANK
        NUMBER OF EQUATIONS:  7248
        NUMBER OF RHS:        1
        NUMBER OF FLOPS:      8.357e+07
        SOLVER ELAPSED TIME:  16ms

               CONVERGENCE CHECKS FOR EQUILIBRIUM ITERATION     2


 AVERAGE FORCE                      0.197       TIME AVG. FORCE       0.183    
 LARGEST SCALED RESIDUAL FORCE      1.504E-03   AT NODE        141   DOF  1
   INSTANCE: FRAME-1                                                                         
  CORRESPONDING RESIDUAL FORCE      1.504E-03
 LARGEST INCREMENT OF DISP.          2.09       AT NODE         10   DOF  2
   INSTANCE: FRAME-1                                                                         
 LARGEST CORRECTION TO DISP.       -7.708E-03   AT NODE         16   DOF  3
   INSTANCE: FRAME-1                                                                         
          FORCE     EQUILIBRIUM NOT ACHIEVED WITHIN TOLERANCE.

 AVERAGE MOMENT                     0.127       TIME AVG. MOMENT      0.147    
 LARGEST SCALED RESIDUAL MOMENT     1.067E-04   AT NODE        141   DOF  5
   INSTANCE: FRAME-1                                                                         
  CORRESPONDING RESIDUAL MOMENT     1.067E-04
 LARGEST INCREMENT OF ROTATION     -5.659E-02   AT NODE          7   DOF  4
   INSTANCE: FRAME-1                                                                         
 LARGEST CORRECTION TO ROTATION     3.793E-04   AT NODE        473   DOF  5
   INSTANCE: FRAME-1                                                                         
          THE MOMENT    EQUILIBRIUM EQUATIONS HAVE CONVERGED
 
	SYMMETRIC DIRECT SPARSE SOLVER RUNNING ON
 	1 HOST x 1 MPI RANK PER HOST x 1 THREAD PER RANK
        NUMBER OF EQUATIONS:  7248
        NUMBER OF RHS:        1
        NUMBER OF FLOPS:      8.357e+07
        SOLVER ELAPSED TIME:  16ms

               CONVERGENCE CHECKS FOR EQUILIBRIUM ITERATION     3


 AVERAGE FORCE                      0.197       TIME AVG. FORCE       0.183    
 LARGEST SCALED RESIDUAL FORCE     -3.742E-02   AT NODE        160   DOF  1
   INSTANCE: FRAME-1                                                                         
  CORRESPONDING RESIDUAL FORCE     -3.742E-02
 LARGEST INCREMENT OF DISP.          2.13       AT NODE         10   DOF  2
   INSTANCE: FRAME-1                                                                         
 LARGEST CORRECTION TO DISP.        4.478E-02   AT NODE         10   DOF  2
   INSTANCE: FRAME-1                                                                         
          FORCE     EQUILIBRIUM NOT ACHIEVED WITHIN TOLERANCE.

 AVERAGE MOMENT                     0.127       TIME AVG. MOMENT      0.147    
 LARGEST SCALED RESIDUAL MOMENT     3.203E-03   AT NODE        161   DOF  4
   INSTANCE: FRAME-1                                                                         
  CORRESPONDING RESIDUAL MOMENT     3.203E-03
 LARGEST INCREMENT OF ROTATION     -5.747E-02   AT NODE          7   DOF  4
   INSTANCE: FRAME-1                                                                         
 LARGEST CORRECTION TO ROTATION    -1.218E-03   AT NODE        212   DOF  5
   INSTANCE: FRAME-1                                                                         
          MOMENT    EQUILIBRIUM NOT ACHIEVED WITHIN TOLERANCE.
 
	SYMMETRIC DIRECT SPARSE SOLVER RUNNING ON
 	1 HOST x 1 MPI RANK PER HOST x 1 THREAD PER RANK
        NUMBER OF EQUATIONS:  7248
        NUMBER OF RHS:        1
        NUMBER OF FLOPS:      8.357e+07
        SOLVER ELAPSED TIME:  17ms

               CONVERGENCE CHECKS FOR EQUILIBRIUM ITERATION     4


 AVERAGE FORCE                      0.197       TIME AVG. FORCE       0.183    
 LARGEST SCALED RESIDUAL FORCE      1.675E-05   AT NODE         55   DOF  2
   INSTANCE: FRAME-1                                                                         
  CORRESPONDING RESIDUAL FORCE      1.675E-05
 LARGEST INCREMENT OF DISP.          2.13       AT NODE         10   DOF  2
   INSTANCE: FRAME-1                                                                         
 LARGEST CORRECTION TO DISP.       -5.701E-04   AT NODE         16   DOF  3
   INSTANCE: FRAME-1                                                                         
          THE FORCE     EQUILIBRIUM EQUATIONS HAVE CONVERGED

 AVERAGE MOMENT                     0.127       TIME AVG. MOMENT      0.147    
 LARGEST SCALED RESIDUAL MOMENT     1.411E-05   AT NODE          7   DOF  4
   INSTANCE: FRAME-1                                                                         
  CORRESPONDING RESIDUAL MOMENT     1.411E-05
 LARGEST INCREMENT OF ROTATION     -5.748E-02   AT NODE          7   DOF  4
   INSTANCE: FRAME-1                                                                         
 LARGEST CORRECTION TO ROTATION     4.832E-05   AT NODE         56   DOF  4
   INSTANCE: FRAME-1                                                                         
          THE MOMENT    EQUILIBRIUM EQUATIONS HAVE CONVERGED

 ITERATION SUMMARY FOR THE INCREMENT:   4 TOTAL ITERATIONS, OF WHICH
   0 ARE SEVERE DISCONTINUITY ITERATIONS AND  4 ARE EQUILIBRIUM ITERATIONS.

 TIME INCREMENT COMPLETED  0.225    ,  FRACTION OF STEP COMPLETED  0.775    
 STEP TIME COMPLETED       0.775    ,  TOTAL TIME COMPLETED         2.78    


  INCREMENT     7 STARTS. ATTEMPT NUMBER  1, TIME INCREMENT  0.225    
 
	SYMMETRIC DIRECT SPARSE SOLVER RUNNING ON
 	1 HOST x 1 MPI RANK PER HOST x 1 THREAD PER RANK
        NUMBER OF EQUATIONS:  7248
        NUMBER OF RHS:        1
        NUMBER OF FLOPS:      8.357e+07
        SOLVER ELAPSED TIME:  15ms

               CONVERGENCE CHECKS FOR EQUILIBRIUM ITERATION     1


 AVERAGE FORCE                      0.232       TIME AVG. FORCE       0.190    
 LARGEST SCALED RESIDUAL FORCE       4.09       AT NODE        174   DOF  2
   INSTANCE: FRAME-1                                                                         
  CORRESPONDING RESIDUAL FORCE       4.09    
 LARGEST INCREMENT OF DISP.          2.31       AT NODE         10   DOF  2
   INSTANCE: FRAME-1                                                                         
 LARGEST CORRECTION TO DISP.       -0.473       AT NODE          4   DOF  3
   INSTANCE: FRAME-1                                                                         
          FORCE     EQUILIBRIUM NOT ACHIEVED WITHIN TOLERANCE.

 AVERAGE MOMENT                     0.129       TIME AVG. MOMENT      0.144    
 LARGEST SCALED RESIDUAL MOMENT    -0.477       AT NODE        175   DOF  4
   INSTANCE: FRAME-1                                                                         
  CORRESPONDING RESIDUAL MOMENT    -0.477    
 LARGEST INCREMENT OF ROTATION      6.927E-02   AT NODE         11   DOF  5
   INSTANCE: FRAME-1                                                                         
 LARGEST CORRECTION TO ROTATION    -1.203E-02   AT NODE        268   DOF  4
   INSTANCE: FRAME-1                                                                         
          MOMENT    EQUILIBRIUM NOT ACHIEVED WITHIN TOLERANCE.
 
	SYMMETRIC DIRECT SPARSE SOLVER RUNNING ON
 	1 HOST x 1 MPI RANK PER HOST x 1 THREAD PER RANK
        NUMBER OF EQUATIONS:  7248
        NUMBER OF RHS:        1
        NUMBER OF FLOPS:      8.357e+07
        SOLVER ELAPSED TIME:  15ms

               CONVERGENCE CHECKS FOR EQUILIBRIUM ITERATION     2


 AVERAGE FORCE                      0.212       TIME AVG. FORCE       0.188    
 LARGEST SCALED RESIDUAL FORCE      2.826E-03   AT NODE        137   DOF  1
   INSTANCE: FRAME-1                                                                         
  CORRESPONDING RESIDUAL FORCE      2.826E-03
 LARGEST INCREMENT OF DISP.          2.31       AT NODE         10   DOF  2
   INSTANCE: FRAME-1                                                                         
 LARGEST CORRECTION TO DISP.       -9.342E-03   AT NODE       1223   DOF  3
   INSTANCE: MEMBRANE-1                                                                      
          FORCE     EQUILIBRIUM NOT ACHIEVED WITHIN TOLERANCE.

 AVERAGE MOMENT                     0.112       TIME AVG. MOMENT      0.142    
 LARGEST SCALED RESIDUAL MOMENT     1.965E-04   AT NODE        138   DOF  5
   INSTANCE: FRAME-1                                                                         
  CORRESPONDING RESIDUAL MOMENT     1.965E-04
 LARGEST INCREMENT OF ROTATION     -6.933E-02   AT NODE          7   DOF  4
   INSTANCE: FRAME-1                                                                         
 LARGEST CORRECTION TO ROTATION     5.270E-04   AT NODE        485   DOF  5
   INSTANCE: FRAME-1                                                                         
          THE MOMENT    EQUILIBRIUM EQUATIONS HAVE CONVERGED
 
	SYMMETRIC DIRECT SPARSE SOLVER RUNNING ON
 	1 HOST x 1 MPI RANK PER HOST x 1 THREAD PER RANK
        NUMBER OF EQUATIONS:  7248
        NUMBER OF RHS:        1
        NUMBER OF FLOPS:      8.357e+07
        SOLVER ELAPSED TIME:  15ms

               CONVERGENCE CHECKS FOR EQUILIBRIUM ITERATION     3


 AVERAGE FORCE                      0.210       TIME AVG. FORCE       0.187    
 LARGEST SCALED RESIDUAL FORCE     -0.142       AT NODE        157   DOF  1
   INSTANCE: FRAME-1                                                                         
  CORRESPONDING RESIDUAL FORCE     -0.142    
 LARGEST INCREMENT OF DISP.          2.39       AT NODE         10   DOF  2
   INSTANCE: FRAME-1                                                                         
 LARGEST CORRECTION TO DISP.       -9.825E-02   AT NODE        304   DOF  3
   INSTANCE: FRAME-1                                                                         
          FORCE     EQUILIBRIUM NOT ACHIEVED WITHIN TOLERANCE.

 AVERAGE MOMENT                     0.112       TIME AVG. MOMENT      0.142    
 LARGEST SCALED RESIDUAL MOMENT     1.221E-02   AT NODE        164   DOF  4
   INSTANCE: FRAME-1                                                                         
  CORRESPONDING RESIDUAL MOMENT     1.221E-02
 LARGEST INCREMENT OF ROTATION     -7.036E-02   AT NODE          7   DOF  4
   INSTANCE: FRAME-1                                                                         
 LARGEST CORRECTION TO ROTATION    -3.301E-03   AT NODE        213   DOF  5
   INSTANCE: FRAME-1                                                                         
          MOMENT    EQUILIBRIUM NOT ACHIEVED WITHIN TOLERANCE.
 
	SYMMETRIC DIRECT SPARSE SOLVER RUNNING ON
 	1 HOST x 1 MPI RANK PER HOST x 1 THREAD PER RANK
        NUMBER OF EQUATIONS:  7248
        NUMBER OF RHS:        1
        NUMBER OF FLOPS:      8.357e+07
        SOLVER ELAPSED TIME:  15ms

               CONVERGENCE CHECKS FOR EQUILIBRIUM ITERATION     4


 AVERAGE FORCE                      0.213       TIME AVG. FORCE       0.188    
 LARGEST SCALED RESIDUAL FORCE     -9.215E-05   AT NODE        264   DOF  2
   INSTANCE: FRAME-1                                                                         
  CORRESPONDING RESIDUAL FORCE     -9.215E-05
 LARGEST INCREMENT OF DISP.          2.39       AT NODE         10   DOF  2
   INSTANCE: FRAME-1                                                                         
 LARGEST CORRECTION TO DISP.       -1.627E-03   AT NODE        297   DOF  3
   INSTANCE: FRAME-1                                                                         
          THE FORCE     EQUILIBRIUM EQUATIONS HAVE CONVERGED

 AVERAGE MOMENT                     0.111       TIME AVG. MOMENT      0.142    
 LARGEST SCALED RESIDUAL MOMENT    -1.918E-05   AT NODE          7   DOF  5
   INSTANCE: FRAME-1                                                                         
  CORRESPONDING RESIDUAL MOMENT    -1.918E-05
 LARGEST INCREMENT OF ROTATION     -7.039E-02   AT NODE          7   DOF  4
   INSTANCE: FRAME-1                                                                         
 LARGEST CORRECTION TO ROTATION     1.130E-04   AT NODE         56   DOF  4
   INSTANCE: FRAME-1                                                                         
          THE MOMENT    EQUILIBRIUM EQUATIONS HAVE CONVERGED

 ITERATION SUMMARY FOR THE INCREMENT:   4 TOTAL ITERATIONS, OF WHICH
   0 ARE SEVERE DISCONTINUITY ITERATIONS AND  4 ARE EQUILIBRIUM ITERATIONS.

 TIME INCREMENT COMPLETED  0.225    ,  FRACTION OF STEP COMPLETED   1.00    
 STEP TIME COMPLETED        1.00    ,  TOTAL TIME COMPLETED         3.00    


          THE ANALYSIS HAS BEEN COMPLETED



     ANALYSIS SUMMARY:
     TOTAL OF        137  INCREMENTS
                      30  CUTBACKS IN AUTOMATIC INCREMENTATION
                     625  ITERATIONS INCLUDING CONTACT ITERATIONS IF PRESENT
                     625  PASSES THROUGH THE EQUATION SOLVER OF WHICH 
                     625  INVOLVE MATRIX DECOMPOSITION, INCLUDING
                       0  DECOMPOSITION(S) OF THE MASS MATRIX
                       1  REORDERING OF EQUATIONS TO MINIMIZE WAVEFRONT
                       0  ADDITIONAL RESIDUAL EVALUATIONS FOR LINE SEARCHES
                       0  ADDITIONAL OPERATOR EVALUATIONS FOR LINE SEARCHES
                      16  WARNING MESSAGES DURING USER INPUT PROCESSING
                      27  WARNING MESSAGES DURING ANALYSIS
                       0  ANALYSIS WARNINGS ARE NUMERICAL PROBLEM MESSAGES
                      27  ANALYSIS WARNINGS ARE NEGATIVE EIGENVALUE MESSAGES
                       0  ERROR MESSAGES



     JOB TIME SUMMARY
       USER TIME (SEC)      =      52.    
       SYSTEM TIME (SEC)    =      2.7    
       TOTAL CPU TIME (SEC) =      54.    
       WALLCLOCK TIME (SEC) =           54
       MEMORY PEAK (GB)     =            0
