*Heading
** Job name: Job-1 Model name: Model-1
** Generated by: Abaqus/CAE 2024
*Preprint, echo=NO, model=NO, history=NO, contact=NO
**
** PARTS
**
*Part, name=frame
*Node
      1,         -50.,   37.2999992,           0.
      2,  -37.2999992,   37.2999992,           0.
      3,  -37.2999992,          50.,           0.
      4,         -50.,          50.,           0.
      5,   37.2999992,   37.2999992,           0.
      6,   37.2999992,          50.,           0.
      7,         -50.,  -37.2999992,           0.
      8,  -37.2999992,  -37.2999992,           0.
      9,          50.,   37.2999992,           0.
     10,          50.,          50.,           0.
     11,  -37.2999992,         -50.,           0.
     12,         -50.,         -50.,           0.
     13,   37.2999992,  -37.2999992,           0.
     14,          50.,  -37.2999992,           0.
     15,   37.2999992,         -50.,           0.
     16,          50.,         -50.,           0.
     17,  -47.4599991,   37.2999992,           0.
     18,  -44.9199982,   37.2999992,           0.
     19,  -42.3800011,   37.2999992,           0.
     20,  -39.8400002,   37.2999992,           0.
** ... 796 like lines cut
*Element, type=S4
 1,   1,  17, 305,  32
 2,  17,  18, 306, 305
 3,  18,  19, 307, 306
 4,  19,  20, 308, 307
 5,  20,   2,  21, 308
 6,  32, 305, 309,  31
 7, 305, 306, 310, 309
 8, 306, 307, 311, 310
 9, 307, 308, 312, 311
10, 308,  21,  22, 312
11,  31, 309, 313,  30
12, 309, 310, 314, 313
13, 310, 311, 315, 314
14, 311, 312, 316, 315
15, 312,  22,  23, 316
16,  30, 313, 317,  29
17, 313, 314, 318, 317
18, 314, 315, 319, 318
19, 315, 316, 320, 319
20, 316,  23,  24, 320
** ... 660 like lines cut
*Orientation, name=Ori-7
1., 0., 0., 0., 1., 0.
3, 0.
** Region: (Top_Left-1: Generated From Layup)
*Elset, elset=Top_Left-1, generate
  1,  25,   1
** Section: Top_Left-1
*Shell Section, elset=Top_Left-1, composite, orientation=Ori-7, layup=Top_Left
0.13, 3, Tape, 0., Tape
0.04, 3, FRP, 90., Ply-1
0.04, 3, FRP, 180., Ply-2
0.04, 3, FRP, 90., Ply-3
0.04, 3, FRP, 0., Ply-4
0.04, 3, FRP, 90., Ply-5
0.04, 3, FRP, 0., Ply-6
*Orientation, name=Ori-6
1., 0., 0., 0., 1., 0.
3, 0.
** Region: (Top-1: Generated From Layup)
*Elset, elset=Top-1, generate
  26,  170,    1
** Section: Top-1
*Shell Section, elset=Top-1, composite, orientation=Ori-6, layup=Top
0.13, 3, Tape, 0., Tape
0.04, 3, FRP, 0., Ply-1
0.04, 3, FRP, 90., Ply-2
0.04, 3, FRP, 0., Ply-3
*Orientation, name=Ori-4
1., 0., 0., 0., 1., 0.
3, 0.
** Region: (Left-1: Generated From Layup)
*Elset, elset=Left-1, generate
 171,  315,    1
** Section: Left-1
*Shell Section, elset=Left-1, composite, orientation=Ori-4, layup=Left
0.13, 3, Tape, 0., Tape
0.04, 3, FRP, 90., Ply-1
0.04, 3, FRP, 180., Ply-2
0.04, 3, FRP, 90., Ply-3
*Orientation, name=Ori-8
1., 0., 0., 0., 1., 0.
3, 0.
** Region: (Top_Right-1: Generated From Layup)
*Elset, elset=Top_Right-1, generate
 316,  340,    1
** Section: Top_Right-1
*Shell Section, elset=Top_Right-1, composite, orientation=Ori-8, layup=Top_Right
0.13, 3, Tape, 0., Tape
0.04, 3, FRP, 0., Ply-1
0.04, 3, FRP, 90., Ply-2
0.04, 3, FRP, 0., Ply-3
0.04, 3, FRP, 90., Ply-4
0.04, 3, FRP, 180., Ply-5
0.04, 3, FRP, 90., Ply-6
*Orientation, name=Ori-2
1., 0., 0., 0., 1., 0.
3, 0.
** Region: (Bottom_Left-1: Generated From Layup)
*Elset, elset=Bottom_Left-1, generate
 341,  365,    1
** Section: Bottom_Left-1
*Shell Section, elset=Bottom_Left-1, composite, orientation=Ori-2, layup=Bottom_Left
0.13, 3, Tape, 0., Tape
0.04, 3, FRP, 0., Ply-1
0.04, 3, FRP, 90., Ply-2
0.04, 3, FRP, 0., Ply-3
0.04, 3, FRP, 90., Ply-4
0.04, 3, FRP, 180., Ply-5
0.04, 3, FRP, 90., Ply-6
*Orientation, name=Ori-5
1., 0., 0., 0., 1., 0.
3, 0.
** Region: (Right-1: Generated From Layup)
*Elset, elset=Right-1, generate
 366,  510,    1
** Section: Right-1
*Shell Section, elset=Right-1, composite, orientation=Ori-5, layup=Right
0.13, 3, Tape, 0., Tape
0.04, 3, FRP, 90., Ply-1
0.04, 3, FRP, 180., Ply-2
0.04, 3, FRP, 90., Ply-3
*Orientation, name=Ori-1
1., 0., 0., 0., 1., 0.
3, 0.
** Region: (Bottom-1: Generated From Layup)
*Elset, elset=Bottom-1, generate
 511,  655,    1
** Section: Bottom-1
*Shell Section, elset=Bottom-1, composite, orientation=Ori-1, layup=Bottom
0.13, 3, Tape, 0., Tape
0.04, 3, FRP, 0., Ply-1
0.04, 3, FRP, 90., Ply-2
0.04, 3, FRP, 0., Ply-3
*Orientation, name=Ori-3
1., 0., 0., 0., 1., 0.
3, 0.
** Region: (Bottom_Right-1: Generated From Layup)
*Elset, elset=Bottom_Right-1, generate
 656,  680,    1
** Section: Bottom_Right-1
*Shell Section, elset=Bottom_Right-1, composite, orientation=Ori-3, layup=Bottom_Right
0.13, 3, Tape, 0., Tape
0.04, 3, FRP, 90., Ply-1
0.04, 3, FRP, 180., Ply-2
0.04, 3, FRP, 90., Ply-3
0.04, 3, FRP, 0., Ply-4
0.04, 3, FRP, 90., Ply-5
0.04, 3, FRP, 0., Ply-6
*End Part
**  
*Part, name=membrane
*Node
      1,   37.2999992,   37.2999992,           0.
      2,          50.,   37.2999992,           0.
      3,          50.,          50.,           0.
      4,   37.2999992,          50.,           0.
      5,   37.2999992,  -37.2999992,           0.
      6,   37.2999992,         -50.,           0.
      7,          50.,         -50.,           0.
      8,          50.,  -37.2999992,           0.
      9,  -37.2999992,   37.2999992,           0.
     10,  -37.2999992,          50.,           0.
     11,         -50.,          50.,           0.
     12,         -50.,   37.2999992,           0.
     13,  -37.2999992,         -50.,           0.
     14,  -37.2999992,  -37.2999992,           0.
     15,         -50.,  -37.2999992,           0.
     16,         -50.,         -50.,           0.
     17,   39.8400002,   37.2999992,           0.
     18,   42.3800011,   37.2999992,           0.
     19,   44.9199982,   37.2999992,           0.
     20,   47.4599991,   37.2999992,           0.
** ... 1580 like lines cut
*Element, type=M3D4R
 1,   1,  17, 305,  32
 2,  17,  18, 306, 305
 3,  18,  19, 307, 306
 4,  19,  20, 308, 307
 5,  20,   2,  21, 308
 6,  32, 305, 309,  31
 7, 305, 306, 310, 309
 8, 306, 307, 311, 310
 9, 307, 308, 312, 311
10, 308,  21,  22, 312
11,  31, 309, 313,  30
12, 309, 310, 314, 313
13, 310, 311, 315, 314
14, 311, 312, 316, 315
15, 312,  22,  23, 316
16,  30, 313, 317,  29
17, 313, 314, 318, 317
18, 314, 315, 319, 318
19, 315, 316, 320, 319
20, 316,  23,  24, 320
** ... 1501 like lines cut
*Nset, nset=Set-1, generate
    1,  1600,     1
*Elset, elset=Set-1, generate
    1,  1521,     1
** Section: Membrane
*Membrane Section, elset=Set-1, material=Membrane
0.025, 
*End Part
**  
**
** ASSEMBLY
**
*Assembly, name=Assembly
**  
*Instance, name=frame-1, part=frame
*End Instance
**  
*Instance, name=membrane-1, part=membrane
*End Instance
**  
*Nset, nset=Set-1, instance=membrane-1, generate
    1,  1600,     1
*Elset, elset=Set-1, instance=membrane-1, generate
    1,  1521,     1
*Nset, nset=fixedZNodes, instance=frame-1
 6, 9
*Nset, nset=pinnedZNodes, instance=frame-1
  7, 11
*Nset, nset=pullingNodes, instance=frame-1
 5, 8
*Elset, elset=_frame_bottom_surf_SNEG, internal, instance=frame-1, generate
   1,  680,    1
*Surface, type=ELEMENT, name=frame_bottom_surf
_frame_bottom_surf_SNEG, SNEG
*Elset, elset=_membrane_top_surf_SPOS, internal, instance=membrane-1, generate
    1,  1521,     1
*Surface, type=ELEMENT, name=membrane_top_surf
_membrane_top_surf_SPOS, SPOS
** Constraint: Tie
*Tie, name=Tie, adjust=yes
membrane_top_surf, frame_bottom_surf
*End Assembly
** 
** MATERIALS
** 
*Material, name=FRP
*Density
 1.2e-09,
*Elastic, type=LAMINA
222000., 7010., 0.314, 4661., 4661., 2540.
*Material, name=Membrane
*Density
 1e-09,
*Hyperelastic, neo hooke
 30.972,0.
*Material, name=Tape
*Density
 1.2e-09,
*Elastic
1., 0.3
** 
** BOUNDARY CONDITIONS
** 
** Name: FixZ Type: Displacement/Rotation
*Boundary
fixedZNodes, 3, 3
** Name: PinnedBC Type: Displacement/Rotation
*Boundary
pinnedZNodes, 1, 1
pinnedZNodes, 2, 2
pinnedZNodes, 3, 3
pinnedZNodes, 6, 6
** 
** PREDEFINED FIELDS
** 
** Name: Biaxial_prestress   Type: Stress
*Initial Conditions, type=STRESS
Set-1, 6., 6., 0., 
** ----------------------------------------------------------------
** 
** STEP: ShapeForming
** 
*Step, name=ShapeForming, nlgeom=YES, inc=10000
*Dynamic,application=QUASI-STATIC,initial=NO
0.1,1.,1e-09
** 
** OUTPUT REQUESTS
** 
*Restart, write, frequency=0
** 
** FIELD OUTPUT: F-Output-2
** 
*Output, field, frequency=1
*Node Output
U, 
*Element Output, directions=YES
S, SE
** 
** FIELD OUTPUT: F-Output-1
** 
*Output, field, variable=PRESELECT
** 
** HISTORY OUTPUT: H-Output-2
** 
*Output, history, frequency=1
*Energy Output
ALLAE, ALLIE, ALLKE, ALLSD, ALLSE, ALLWK, ETOTAL
** 
** HISTORY OUTPUT: H-Output-1
** 
*Output, history, variable=PRESELECT
*End Step
** ----------------------------------------------------------------
** 
** STEP: pullCorners
** 
*Step, name=pullCorners, nlgeom=YES, inc=10000
*Static, stabilize=2e-06, allsdtol=0.01, continue=NO
0.01, 1., 1e-09, 1.
** 
** BOUNDARY CONDITIONS
** 
** Name: pullCorners Type: Displacement/Rotation
*Boundary
pullingNodes, 3, 3, 8.
** 
** OUTPUT REQUESTS
** 
*Restart, write, frequency=0
** 
** FIELD OUTPUT: F-Output-2
** 
*Output, field
*Node Output
U, 
*Element Output, directions=YES
S, SE
** 
** FIELD OUTPUT: F-Output-1
** 
*Output, field, variable=PRESELECT, frequency=10
** 
** HISTORY OUTPUT: H-Output-2
** 
*Output, history
*Energy Output
ALLAE, ALLIE, ALLKE, ALLSD, ALLSE, ALLWK, ETOTAL
** 
** HISTORY OUTPUT: H-Output-1
** 
*Output, history, variable=PRESELECT, frequency=10
*End Step
** ----------------------------------------------------------------
** 
** STEP: Release
** 
*Step, name=Release, nlgeom=YES, inc=10000
*Dynamic,application=QUASI-STATIC,initial=NO
0.1,1.,1e-09
** 
** BOUNDARY CONDITIONS
** 
** Name: FixZ Type: Displacement/Rotation
*Boundary, op=NEW
fixedZNodes, 3, 3
** Name: PinnedBC Type: Displacement/Rotation
*Boundary, op=NEW
pinnedZNodes, 1, 1
pinnedZNodes, 2, 2
pinnedZNodes, 3, 3
pinnedZNodes, 6, 6
** Name: pullCorners Type: Displacement/Rotation
*Boundary, op=NEW
** 
** OUTPUT REQUESTS
** 
*Restart, write, frequency=0
** 
** FIELD OUTPUT: F-Output-2
** 
*Output, field, frequency=1
*Node Output
U, 
*Element Output, directions=YES
S, SE
** 
** FIELD OUTPUT: F-Output-1
** 
*Output, field, variable=PRESELECT
** 
** HISTORY OUTPUT: H-Output-2
** 
*Output, history, frequency=1
*Energy Output
ALLAE, ALLIE, ALLKE, ALLSD, ALLSE, ALLWK, ETOTAL
** 
** HISTORY OUTPUT: H-Output-1
** 
*Output, history, variable=PRESELECT
*End Step
